
---------- Begin Simulation Statistics ----------
simSeconds                                   0.000147                       # Number of seconds simulated (Second)
simTicks                                    147361000                       # Number of ticks simulated (Tick)
finalTick                                   147361000                       # Number of ticks from beginning of simulation (restored from checkpoints and never reset) (Tick)
simFreq                                  1000000000000                       # The number of ticks per simulated second ((Tick/Second))
hostSeconds                                      0.22                       # Real time elapsed on the host (Second)
hostTickRate                                670166949                       # The number of ticks simulated per host second (ticks/s) ((Tick/Second))
hostMemory                                    2341128                       # Number of bytes of host memory used (Byte)
simInsts                                         5166                       # Number of instructions simulated (Count)
simOps                                           6027                       # Number of ops (including micro ops) simulated (Count)
hostInstRate                                    23478                       # Simulator instruction rate (inst/s) ((Count/Second))
hostOpRate                                      27390                       # Simulator op (including micro ops) rate (op/s) ((Count/Second))
system.clk_domain.clock                          1000                       # Clock period in ticks (Tick)
system.clk_domain.voltage_domain.voltage            1                       # Voltage in Volts (Volt)
system.cpu.numCycles                           147361                       # Number of cpu cycles simulated (Cycle)
system.cpu.cpi                              28.459058                       # CPI: cycles per instruction (core level) ((Cycle/Count))
system.cpu.ipc                               0.035138                       # IPC: instructions per cycle (core level) ((Count/Cycle))
system.cpu.numWorkItemsStarted                      0                       # Number of work items this cpu started (Count)
system.cpu.numWorkItemsCompleted                    0                       # Number of work items this cpu completed (Count)
system.cpu.commitStats0.numInsts                 5178                       # Number of instructions committed (thread level) (Count)
system.cpu.commitStats0.numOps                   6041                       # Number of ops (including micro ops) committed (thread level) (Count)
system.cpu.commitStats0.numInstsNotNOP              0                       # Number of instructions committed excluding NOPs or prefetches (Count)
system.cpu.commitStats0.numOpsNotNOP                0                       # Number of Ops (including micro ops) Simulated (Count)
system.cpu.commitStats0.cpi                 28.459058                       # CPI: cycles per instruction (thread level) ((Cycle/Count))
system.cpu.commitStats0.ipc                  0.035138                       # IPC: instructions per cycle (thread level) ((Count/Cycle))
system.cpu.commitStats0.numMemRefs                  0                       # Number of memory references committed (Count)
system.cpu.commitStats0.numFpInsts                  0                       # Number of float instructions (Count)
system.cpu.commitStats0.numIntInsts              5434                       # Number of integer instructions (Count)
system.cpu.commitStats0.numLoadInsts              837                       # Number of load instructions (Count)
system.cpu.commitStats0.numStoreInsts            1093                       # Number of store instructions (Count)
system.cpu.commitStats0.numVecInsts               248                       # Number of vector instructions (Count)
system.cpu.commitStats0.committedInstType::No_OpClass            3      0.05%      0.05% # Class of committed instruction. (Count)
system.cpu.commitStats0.committedInstType::IntAlu         3954     65.45%     65.50% # Class of committed instruction. (Count)
system.cpu.commitStats0.committedInstType::IntMult            4      0.07%     65.57% # Class of committed instruction. (Count)
system.cpu.commitStats0.committedInstType::IntDiv            4      0.07%     65.63% # Class of committed instruction. (Count)
system.cpu.commitStats0.committedInstType::FloatAdd            0      0.00%     65.63% # Class of committed instruction. (Count)
system.cpu.commitStats0.committedInstType::FloatCmp            0      0.00%     65.63% # Class of committed instruction. (Count)
system.cpu.commitStats0.committedInstType::FloatCvt            0      0.00%     65.63% # Class of committed instruction. (Count)
system.cpu.commitStats0.committedInstType::FloatMult            0      0.00%     65.63% # Class of committed instruction. (Count)
system.cpu.commitStats0.committedInstType::FloatMultAcc            0      0.00%     65.63% # Class of committed instruction. (Count)
system.cpu.commitStats0.committedInstType::FloatDiv            0      0.00%     65.63% # Class of committed instruction. (Count)
system.cpu.commitStats0.committedInstType::FloatMisc          100      1.66%     67.29% # Class of committed instruction. (Count)
system.cpu.commitStats0.committedInstType::FloatSqrt            0      0.00%     67.29% # Class of committed instruction. (Count)
system.cpu.commitStats0.committedInstType::SimdAdd           15      0.25%     67.54% # Class of committed instruction. (Count)
system.cpu.commitStats0.committedInstType::SimdAddAcc            0      0.00%     67.54% # Class of committed instruction. (Count)
system.cpu.commitStats0.committedInstType::SimdAlu           10      0.17%     67.70% # Class of committed instruction. (Count)
system.cpu.commitStats0.committedInstType::SimdCmp           12      0.20%     67.90% # Class of committed instruction. (Count)
system.cpu.commitStats0.committedInstType::SimdCvt            0      0.00%     67.90% # Class of committed instruction. (Count)
system.cpu.commitStats0.committedInstType::SimdMisc            9      0.15%     68.05% # Class of committed instruction. (Count)
system.cpu.commitStats0.committedInstType::SimdMult            0      0.00%     68.05% # Class of committed instruction. (Count)
system.cpu.commitStats0.committedInstType::SimdMultAcc            0      0.00%     68.05% # Class of committed instruction. (Count)
system.cpu.commitStats0.committedInstType::SimdMatMultAcc            0      0.00%     68.05% # Class of committed instruction. (Count)
system.cpu.commitStats0.committedInstType::SimdShift            0      0.00%     68.05% # Class of committed instruction. (Count)
system.cpu.commitStats0.committedInstType::SimdShiftAcc            0      0.00%     68.05% # Class of committed instruction. (Count)
system.cpu.commitStats0.committedInstType::SimdDiv            0      0.00%     68.05% # Class of committed instruction. (Count)
system.cpu.commitStats0.committedInstType::SimdSqrt            0      0.00%     68.05% # Class of committed instruction. (Count)
system.cpu.commitStats0.committedInstType::SimdFloatAdd            0      0.00%     68.05% # Class of committed instruction. (Count)
system.cpu.commitStats0.committedInstType::SimdFloatAlu            0      0.00%     68.05% # Class of committed instruction. (Count)
system.cpu.commitStats0.committedInstType::SimdFloatCmp            0      0.00%     68.05% # Class of committed instruction. (Count)
system.cpu.commitStats0.committedInstType::SimdFloatCvt            0      0.00%     68.05% # Class of committed instruction. (Count)
system.cpu.commitStats0.committedInstType::SimdFloatDiv            0      0.00%     68.05% # Class of committed instruction. (Count)
system.cpu.commitStats0.committedInstType::SimdFloatMisc            0      0.00%     68.05% # Class of committed instruction. (Count)
system.cpu.commitStats0.committedInstType::SimdFloatMult            0      0.00%     68.05% # Class of committed instruction. (Count)
system.cpu.commitStats0.committedInstType::SimdFloatMultAcc            0      0.00%     68.05% # Class of committed instruction. (Count)
system.cpu.commitStats0.committedInstType::SimdFloatMatMultAcc            0      0.00%     68.05% # Class of committed instruction. (Count)
system.cpu.commitStats0.committedInstType::SimdFloatSqrt            0      0.00%     68.05% # Class of committed instruction. (Count)
system.cpu.commitStats0.committedInstType::SimdReduceAdd            0      0.00%     68.05% # Class of committed instruction. (Count)
system.cpu.commitStats0.committedInstType::SimdReduceAlu            0      0.00%     68.05% # Class of committed instruction. (Count)
system.cpu.commitStats0.committedInstType::SimdReduceCmp            0      0.00%     68.05% # Class of committed instruction. (Count)
system.cpu.commitStats0.committedInstType::SimdFloatReduceAdd            0      0.00%     68.05% # Class of committed instruction. (Count)
system.cpu.commitStats0.committedInstType::SimdFloatReduceCmp            0      0.00%     68.05% # Class of committed instruction. (Count)
system.cpu.commitStats0.committedInstType::SimdAes            0      0.00%     68.05% # Class of committed instruction. (Count)
system.cpu.commitStats0.committedInstType::SimdAesMix            0      0.00%     68.05% # Class of committed instruction. (Count)
system.cpu.commitStats0.committedInstType::SimdSha1Hash            0      0.00%     68.05% # Class of committed instruction. (Count)
system.cpu.commitStats0.committedInstType::SimdSha1Hash2            0      0.00%     68.05% # Class of committed instruction. (Count)
system.cpu.commitStats0.committedInstType::SimdSha256Hash            0      0.00%     68.05% # Class of committed instruction. (Count)
system.cpu.commitStats0.committedInstType::SimdSha256Hash2            0      0.00%     68.05% # Class of committed instruction. (Count)
system.cpu.commitStats0.committedInstType::SimdShaSigma2            0      0.00%     68.05% # Class of committed instruction. (Count)
system.cpu.commitStats0.committedInstType::SimdShaSigma3            0      0.00%     68.05% # Class of committed instruction. (Count)
system.cpu.commitStats0.committedInstType::SimdPredAlu            0      0.00%     68.05% # Class of committed instruction. (Count)
system.cpu.commitStats0.committedInstType::Matrix            0      0.00%     68.05% # Class of committed instruction. (Count)
system.cpu.commitStats0.committedInstType::MatrixMov            0      0.00%     68.05% # Class of committed instruction. (Count)
system.cpu.commitStats0.committedInstType::MatrixOP            0      0.00%     68.05% # Class of committed instruction. (Count)
system.cpu.commitStats0.committedInstType::MemRead          837     13.86%     81.91% # Class of committed instruction. (Count)
system.cpu.commitStats0.committedInstType::MemWrite         1093     18.09%    100.00% # Class of committed instruction. (Count)
system.cpu.commitStats0.committedInstType::FloatMemRead            0      0.00%    100.00% # Class of committed instruction. (Count)
system.cpu.commitStats0.committedInstType::FloatMemWrite            0      0.00%    100.00% # Class of committed instruction. (Count)
system.cpu.commitStats0.committedInstType::IprAccess            0      0.00%    100.00% # Class of committed instruction. (Count)
system.cpu.commitStats0.committedInstType::InstPrefetch            0      0.00%    100.00% # Class of committed instruction. (Count)
system.cpu.commitStats0.committedInstType::SimdUnitStrideLoad            0      0.00%    100.00% # Class of committed instruction. (Count)
system.cpu.commitStats0.committedInstType::SimdUnitStrideStore            0      0.00%    100.00% # Class of committed instruction. (Count)
system.cpu.commitStats0.committedInstType::SimdUnitStrideMaskLoad            0      0.00%    100.00% # Class of committed instruction. (Count)
system.cpu.commitStats0.committedInstType::SimdUnitStrideMaskStore            0      0.00%    100.00% # Class of committed instruction. (Count)
system.cpu.commitStats0.committedInstType::SimdStridedLoad            0      0.00%    100.00% # Class of committed instruction. (Count)
system.cpu.commitStats0.committedInstType::SimdStridedStore            0      0.00%    100.00% # Class of committed instruction. (Count)
system.cpu.commitStats0.committedInstType::SimdIndexedLoad            0      0.00%    100.00% # Class of committed instruction. (Count)
system.cpu.commitStats0.committedInstType::SimdIndexedStore            0      0.00%    100.00% # Class of committed instruction. (Count)
system.cpu.commitStats0.committedInstType::SimdWholeRegisterLoad            0      0.00%    100.00% # Class of committed instruction. (Count)
system.cpu.commitStats0.committedInstType::SimdWholeRegisterStore            0      0.00%    100.00% # Class of committed instruction. (Count)
system.cpu.commitStats0.committedInstType::SimdUnitStrideFaultOnlyFirstLoad            0      0.00%    100.00% # Class of committed instruction. (Count)
system.cpu.commitStats0.committedInstType::SimdUnitStrideSegmentedLoad            0      0.00%    100.00% # Class of committed instruction. (Count)
system.cpu.commitStats0.committedInstType::SimdUnitStrideSegmentedStore            0      0.00%    100.00% # Class of committed instruction. (Count)
system.cpu.commitStats0.committedInstType::SimdExt            0      0.00%    100.00% # Class of committed instruction. (Count)
system.cpu.commitStats0.committedInstType::SimdFloatExt            0      0.00%    100.00% # Class of committed instruction. (Count)
system.cpu.commitStats0.committedInstType::SimdConfig            0      0.00%    100.00% # Class of committed instruction. (Count)
system.cpu.commitStats0.committedInstType::total         6041                       # Class of committed instruction. (Count)
system.cpu.commitStats0.committedControl::IsControl         1082                       # Class of control type instructions committed (Count)
system.cpu.commitStats0.committedControl::IsDirectControl          955                       # Class of control type instructions committed (Count)
system.cpu.commitStats0.committedControl::IsIndirectControl          127                       # Class of control type instructions committed (Count)
system.cpu.commitStats0.committedControl::IsCondControl          800                       # Class of control type instructions committed (Count)
system.cpu.commitStats0.committedControl::IsUncondControl          282                       # Class of control type instructions committed (Count)
system.cpu.commitStats0.committedControl::IsCall           95                       # Class of control type instructions committed (Count)
system.cpu.commitStats0.committedControl::IsReturn           91                       # Class of control type instructions committed (Count)
system.cpu.dcache.demandHits::cpu.data           1721                       # number of demand (read+write) hits (Count)
system.cpu.dcache.demandHits::total              1721                       # number of demand (read+write) hits (Count)
system.cpu.dcache.overallHits::cpu.data          1723                       # number of overall hits (Count)
system.cpu.dcache.overallHits::total             1723                       # number of overall hits (Count)
system.cpu.dcache.demandMisses::cpu.data          170                       # number of demand (read+write) misses (Count)
system.cpu.dcache.demandMisses::total             170                       # number of demand (read+write) misses (Count)
system.cpu.dcache.overallMisses::cpu.data          172                       # number of overall misses (Count)
system.cpu.dcache.overallMisses::total            172                       # number of overall misses (Count)
system.cpu.dcache.demandMissLatency::cpu.data     31372000                       # number of demand (read+write) miss ticks (Tick)
system.cpu.dcache.demandMissLatency::total     31372000                       # number of demand (read+write) miss ticks (Tick)
system.cpu.dcache.overallMissLatency::cpu.data     31372000                       # number of overall miss ticks (Tick)
system.cpu.dcache.overallMissLatency::total     31372000                       # number of overall miss ticks (Tick)
system.cpu.dcache.demandAccesses::cpu.data         1891                       # number of demand (read+write) accesses (Count)
system.cpu.dcache.demandAccesses::total          1891                       # number of demand (read+write) accesses (Count)
system.cpu.dcache.overallAccesses::cpu.data         1895                       # number of overall (read+write) accesses (Count)
system.cpu.dcache.overallAccesses::total         1895                       # number of overall (read+write) accesses (Count)
system.cpu.dcache.demandMissRate::cpu.data     0.089900                       # miss rate for demand accesses (Ratio)
system.cpu.dcache.demandMissRate::total      0.089900                       # miss rate for demand accesses (Ratio)
system.cpu.dcache.overallMissRate::cpu.data     0.090765                       # miss rate for overall accesses (Ratio)
system.cpu.dcache.overallMissRate::total     0.090765                       # miss rate for overall accesses (Ratio)
system.cpu.dcache.demandAvgMissLatency::cpu.data 184541.176471                       # average overall miss latency in ticks ((Tick/Count))
system.cpu.dcache.demandAvgMissLatency::total 184541.176471                       # average overall miss latency in ticks ((Tick/Count))
system.cpu.dcache.overallAvgMissLatency::cpu.data 182395.348837                       # average overall miss latency ((Tick/Count))
system.cpu.dcache.overallAvgMissLatency::total 182395.348837                       # average overall miss latency ((Tick/Count))
system.cpu.dcache.blockedCycles::no_mshrs            0                       # number of cycles access was blocked (Cycle)
system.cpu.dcache.blockedCycles::no_targets            0                       # number of cycles access was blocked (Cycle)
system.cpu.dcache.blockedCauses::no_mshrs            0                       # number of times access was blocked (Count)
system.cpu.dcache.blockedCauses::no_targets            0                       # number of times access was blocked (Count)
system.cpu.dcache.avgBlocked::no_mshrs            nan                       # average number of cycles each access was blocked ((Cycle/Count))
system.cpu.dcache.avgBlocked::no_targets          nan                       # average number of cycles each access was blocked ((Cycle/Count))
system.cpu.dcache.demandMshrHits::cpu.data            1                       # number of demand (read+write) MSHR hits (Count)
system.cpu.dcache.demandMshrHits::total             1                       # number of demand (read+write) MSHR hits (Count)
system.cpu.dcache.overallMshrHits::cpu.data            1                       # number of overall MSHR hits (Count)
system.cpu.dcache.overallMshrHits::total            1                       # number of overall MSHR hits (Count)
system.cpu.dcache.demandMshrMisses::cpu.data          169                       # number of demand (read+write) MSHR misses (Count)
system.cpu.dcache.demandMshrMisses::total          169                       # number of demand (read+write) MSHR misses (Count)
system.cpu.dcache.overallMshrMisses::cpu.data          171                       # number of overall MSHR misses (Count)
system.cpu.dcache.overallMshrMisses::total          171                       # number of overall MSHR misses (Count)
system.cpu.dcache.demandMshrMissLatency::cpu.data     29496000                       # number of demand (read+write) MSHR miss ticks (Tick)
system.cpu.dcache.demandMshrMissLatency::total     29496000                       # number of demand (read+write) MSHR miss ticks (Tick)
system.cpu.dcache.overallMshrMissLatency::cpu.data     30166000                       # number of overall MSHR miss ticks (Tick)
system.cpu.dcache.overallMshrMissLatency::total     30166000                       # number of overall MSHR miss ticks (Tick)
system.cpu.dcache.demandMshrMissRate::cpu.data     0.089371                       # mshr miss ratio for demand accesses (Ratio)
system.cpu.dcache.demandMshrMissRate::total     0.089371                       # mshr miss ratio for demand accesses (Ratio)
system.cpu.dcache.overallMshrMissRate::cpu.data     0.090237                       # mshr miss ratio for overall accesses (Ratio)
system.cpu.dcache.overallMshrMissRate::total     0.090237                       # mshr miss ratio for overall accesses (Ratio)
system.cpu.dcache.demandAvgMshrMissLatency::cpu.data 174532.544379                       # average overall mshr miss latency ((Tick/Count))
system.cpu.dcache.demandAvgMshrMissLatency::total 174532.544379                       # average overall mshr miss latency ((Tick/Count))
system.cpu.dcache.overallAvgMshrMissLatency::cpu.data 176409.356725                       # average overall mshr miss latency ((Tick/Count))
system.cpu.dcache.overallAvgMshrMissLatency::total 176409.356725                       # average overall mshr miss latency ((Tick/Count))
system.cpu.dcache.replacements                      0                       # number of replacements (Count)
system.cpu.dcache.LoadLockedReq.hits::cpu.data           15                       # number of LoadLockedReq hits (Count)
system.cpu.dcache.LoadLockedReq.hits::total           15                       # number of LoadLockedReq hits (Count)
system.cpu.dcache.LoadLockedReq.misses::cpu.data            1                       # number of LoadLockedReq misses (Count)
system.cpu.dcache.LoadLockedReq.misses::total            1                       # number of LoadLockedReq misses (Count)
system.cpu.dcache.LoadLockedReq.missLatency::cpu.data       136000                       # number of LoadLockedReq miss ticks (Tick)
system.cpu.dcache.LoadLockedReq.missLatency::total       136000                       # number of LoadLockedReq miss ticks (Tick)
system.cpu.dcache.LoadLockedReq.accesses::cpu.data           16                       # number of LoadLockedReq accesses(hits+misses) (Count)
system.cpu.dcache.LoadLockedReq.accesses::total           16                       # number of LoadLockedReq accesses(hits+misses) (Count)
system.cpu.dcache.LoadLockedReq.missRate::cpu.data     0.062500                       # miss rate for LoadLockedReq accesses (Ratio)
system.cpu.dcache.LoadLockedReq.missRate::total     0.062500                       # miss rate for LoadLockedReq accesses (Ratio)
system.cpu.dcache.LoadLockedReq.avgMissLatency::cpu.data       136000                       # average LoadLockedReq miss latency ((Tick/Count))
system.cpu.dcache.LoadLockedReq.avgMissLatency::total       136000                       # average LoadLockedReq miss latency ((Tick/Count))
system.cpu.dcache.LoadLockedReq.mshrMisses::cpu.data            1                       # number of LoadLockedReq MSHR misses (Count)
system.cpu.dcache.LoadLockedReq.mshrMisses::total            1                       # number of LoadLockedReq MSHR misses (Count)
system.cpu.dcache.LoadLockedReq.mshrMissLatency::cpu.data       126000                       # number of LoadLockedReq MSHR miss ticks (Tick)
system.cpu.dcache.LoadLockedReq.mshrMissLatency::total       126000                       # number of LoadLockedReq MSHR miss ticks (Tick)
system.cpu.dcache.LoadLockedReq.mshrMissRate::cpu.data     0.062500                       # mshr miss rate for LoadLockedReq accesses (Ratio)
system.cpu.dcache.LoadLockedReq.mshrMissRate::total     0.062500                       # mshr miss rate for LoadLockedReq accesses (Ratio)
system.cpu.dcache.LoadLockedReq.avgMshrMissLatency::cpu.data       126000                       # average LoadLockedReq mshr miss latency ((Tick/Count))
system.cpu.dcache.LoadLockedReq.avgMshrMissLatency::total       126000                       # average LoadLockedReq mshr miss latency ((Tick/Count))
system.cpu.dcache.ReadReq.hits::cpu.data          732                       # number of ReadReq hits (Count)
system.cpu.dcache.ReadReq.hits::total             732                       # number of ReadReq hits (Count)
system.cpu.dcache.ReadReq.misses::cpu.data           85                       # number of ReadReq misses (Count)
system.cpu.dcache.ReadReq.misses::total            85                       # number of ReadReq misses (Count)
system.cpu.dcache.ReadReq.missLatency::cpu.data     15391000                       # number of ReadReq miss ticks (Tick)
system.cpu.dcache.ReadReq.missLatency::total     15391000                       # number of ReadReq miss ticks (Tick)
system.cpu.dcache.ReadReq.accesses::cpu.data          817                       # number of ReadReq accesses(hits+misses) (Count)
system.cpu.dcache.ReadReq.accesses::total          817                       # number of ReadReq accesses(hits+misses) (Count)
system.cpu.dcache.ReadReq.missRate::cpu.data     0.104039                       # miss rate for ReadReq accesses (Ratio)
system.cpu.dcache.ReadReq.missRate::total     0.104039                       # miss rate for ReadReq accesses (Ratio)
system.cpu.dcache.ReadReq.avgMissLatency::cpu.data 181070.588235                       # average ReadReq miss latency ((Tick/Count))
system.cpu.dcache.ReadReq.avgMissLatency::total 181070.588235                       # average ReadReq miss latency ((Tick/Count))
system.cpu.dcache.ReadReq.mshrHits::cpu.data            1                       # number of ReadReq MSHR hits (Count)
system.cpu.dcache.ReadReq.mshrHits::total            1                       # number of ReadReq MSHR hits (Count)
system.cpu.dcache.ReadReq.mshrMisses::cpu.data           84                       # number of ReadReq MSHR misses (Count)
system.cpu.dcache.ReadReq.mshrMisses::total           84                       # number of ReadReq MSHR misses (Count)
system.cpu.dcache.ReadReq.mshrMissLatency::cpu.data     14365000                       # number of ReadReq MSHR miss ticks (Tick)
system.cpu.dcache.ReadReq.mshrMissLatency::total     14365000                       # number of ReadReq MSHR miss ticks (Tick)
system.cpu.dcache.ReadReq.mshrMissRate::cpu.data     0.102815                       # mshr miss rate for ReadReq accesses (Ratio)
system.cpu.dcache.ReadReq.mshrMissRate::total     0.102815                       # mshr miss rate for ReadReq accesses (Ratio)
system.cpu.dcache.ReadReq.avgMshrMissLatency::cpu.data 171011.904762                       # average ReadReq mshr miss latency ((Tick/Count))
system.cpu.dcache.ReadReq.avgMshrMissLatency::total 171011.904762                       # average ReadReq mshr miss latency ((Tick/Count))
system.cpu.dcache.SoftPFReq.hits::cpu.data            2                       # number of SoftPFReq hits (Count)
system.cpu.dcache.SoftPFReq.hits::total             2                       # number of SoftPFReq hits (Count)
system.cpu.dcache.SoftPFReq.misses::cpu.data            2                       # number of SoftPFReq misses (Count)
system.cpu.dcache.SoftPFReq.misses::total            2                       # number of SoftPFReq misses (Count)
system.cpu.dcache.SoftPFReq.accesses::cpu.data            4                       # number of SoftPFReq accesses(hits+misses) (Count)
system.cpu.dcache.SoftPFReq.accesses::total            4                       # number of SoftPFReq accesses(hits+misses) (Count)
system.cpu.dcache.SoftPFReq.missRate::cpu.data     0.500000                       # miss rate for SoftPFReq accesses (Ratio)
system.cpu.dcache.SoftPFReq.missRate::total     0.500000                       # miss rate for SoftPFReq accesses (Ratio)
system.cpu.dcache.SoftPFReq.mshrMisses::cpu.data            2                       # number of SoftPFReq MSHR misses (Count)
system.cpu.dcache.SoftPFReq.mshrMisses::total            2                       # number of SoftPFReq MSHR misses (Count)
system.cpu.dcache.SoftPFReq.mshrMissLatency::cpu.data       670000                       # number of SoftPFReq MSHR miss ticks (Tick)
system.cpu.dcache.SoftPFReq.mshrMissLatency::total       670000                       # number of SoftPFReq MSHR miss ticks (Tick)
system.cpu.dcache.SoftPFReq.mshrMissRate::cpu.data     0.500000                       # mshr miss rate for SoftPFReq accesses (Ratio)
system.cpu.dcache.SoftPFReq.mshrMissRate::total     0.500000                       # mshr miss rate for SoftPFReq accesses (Ratio)
system.cpu.dcache.SoftPFReq.avgMshrMissLatency::cpu.data       335000                       # average SoftPFReq mshr miss latency ((Tick/Count))
system.cpu.dcache.SoftPFReq.avgMshrMissLatency::total       335000                       # average SoftPFReq mshr miss latency ((Tick/Count))
system.cpu.dcache.StoreCondReq.hits::cpu.data           16                       # number of StoreCondReq hits (Count)
system.cpu.dcache.StoreCondReq.hits::total           16                       # number of StoreCondReq hits (Count)
system.cpu.dcache.StoreCondReq.accesses::cpu.data           16                       # number of StoreCondReq accesses(hits+misses) (Count)
system.cpu.dcache.StoreCondReq.accesses::total           16                       # number of StoreCondReq accesses(hits+misses) (Count)
system.cpu.dcache.WriteReq.hits::cpu.data          989                       # number of WriteReq hits (Count)
system.cpu.dcache.WriteReq.hits::total            989                       # number of WriteReq hits (Count)
system.cpu.dcache.WriteReq.misses::cpu.data           85                       # number of WriteReq misses (Count)
system.cpu.dcache.WriteReq.misses::total           85                       # number of WriteReq misses (Count)
system.cpu.dcache.WriteReq.missLatency::cpu.data     15981000                       # number of WriteReq miss ticks (Tick)
system.cpu.dcache.WriteReq.missLatency::total     15981000                       # number of WriteReq miss ticks (Tick)
system.cpu.dcache.WriteReq.accesses::cpu.data         1074                       # number of WriteReq accesses(hits+misses) (Count)
system.cpu.dcache.WriteReq.accesses::total         1074                       # number of WriteReq accesses(hits+misses) (Count)
system.cpu.dcache.WriteReq.missRate::cpu.data     0.079143                       # miss rate for WriteReq accesses (Ratio)
system.cpu.dcache.WriteReq.missRate::total     0.079143                       # miss rate for WriteReq accesses (Ratio)
system.cpu.dcache.WriteReq.avgMissLatency::cpu.data 188011.764706                       # average WriteReq miss latency ((Tick/Count))
system.cpu.dcache.WriteReq.avgMissLatency::total 188011.764706                       # average WriteReq miss latency ((Tick/Count))
system.cpu.dcache.WriteReq.mshrMisses::cpu.data           85                       # number of WriteReq MSHR misses (Count)
system.cpu.dcache.WriteReq.mshrMisses::total           85                       # number of WriteReq MSHR misses (Count)
system.cpu.dcache.WriteReq.mshrMissLatency::cpu.data     15131000                       # number of WriteReq MSHR miss ticks (Tick)
system.cpu.dcache.WriteReq.mshrMissLatency::total     15131000                       # number of WriteReq MSHR miss ticks (Tick)
system.cpu.dcache.WriteReq.mshrMissRate::cpu.data     0.079143                       # mshr miss rate for WriteReq accesses (Ratio)
system.cpu.dcache.WriteReq.mshrMissRate::total     0.079143                       # mshr miss rate for WriteReq accesses (Ratio)
system.cpu.dcache.WriteReq.avgMshrMissLatency::cpu.data 178011.764706                       # average WriteReq mshr miss latency ((Tick/Count))
system.cpu.dcache.WriteReq.avgMshrMissLatency::total 178011.764706                       # average WriteReq mshr miss latency ((Tick/Count))
system.cpu.dcache.power_state.pwrStateResidencyTicks::UNDEFINED    147361000                       # Cumulative time (in ticks) in various power states (Tick)
system.cpu.dcache.tags.tagsInUse           105.094897                       # Average ticks per tags in use ((Tick/Count))
system.cpu.dcache.tags.totalRefs                    0                       # Total number of references to valid blocks. (Count)
system.cpu.dcache.tags.sampledRefs                  0                       # Sample count of references to valid blocks. (Count)
system.cpu.dcache.tags.avgRefs                    nan                       # Average number of references to valid blocks. ((Count/Count))
system.cpu.dcache.tags.warmupTick              285000                       # The tick when the warmup percentage was hit. (Tick)
system.cpu.dcache.tags.occupancies::cpu.data   105.094897                       # Average occupied blocks per tick, per requestor ((Count/Tick))
system.cpu.dcache.tags.avgOccs::cpu.data     0.102632                       # Average percentage of cache occupancy ((Ratio/Tick))
system.cpu.dcache.tags.avgOccs::total        0.102632                       # Average percentage of cache occupancy ((Ratio/Tick))
system.cpu.dcache.tags.occupanciesTaskId::1024          172                       # Occupied blocks per task id (Count)
system.cpu.dcache.tags.ageTaskId_1024::0            6                       # Occupied blocks per task id, per block age (Count)
system.cpu.dcache.tags.ageTaskId_1024::1           76                       # Occupied blocks per task id, per block age (Count)
system.cpu.dcache.tags.ageTaskId_1024::2           90                       # Occupied blocks per task id, per block age (Count)
system.cpu.dcache.tags.ratioOccsTaskId::1024     0.167969                       # Ratio of occupied blocks and all blocks, per task id (Ratio)
system.cpu.dcache.tags.tagAccesses              15588                       # Number of tag accesses (Count)
system.cpu.dcache.tags.dataAccesses             15588                       # Number of data accesses (Count)
system.cpu.dcache.tags.power_state.pwrStateResidencyTicks::UNDEFINED    147361000                       # Cumulative time (in ticks) in various power states (Tick)
system.cpu.exec_context.thread_0.numMatAluAccesses            0                       # Number of matrix alu accesses (Count)
system.cpu.exec_context.thread_0.numCallsReturns          186                       # Number of times a function call or return occured (Count)
system.cpu.exec_context.thread_0.numMatInsts            0                       # Number of matrix instructions (Count)
system.cpu.exec_context.thread_0.numIdleCycles     0.001000                       # Number of idle cycles (Cycle)
system.cpu.exec_context.thread_0.numBusyCycles 147360.999000                       # Number of busy cycles (Cycle)
system.cpu.exec_context.thread_0.notIdleFraction     1.000000                       # Percentage of non-idle cycles (Ratio)
system.cpu.exec_context.thread_0.idleFraction     0.000000                       # Percentage of idle cycles (Ratio)
system.cpu.executeStats0.numInsts                   0                       # Number of executed instructions (Count)
system.cpu.executeStats0.numNop                     0                       # Number of nop insts executed (Count)
system.cpu.executeStats0.numBranches                0                       # Number of branches executed (Count)
system.cpu.executeStats0.numLoadInsts               0                       # Number of load instructions executed (Count)
system.cpu.executeStats0.numStoreInsts           1930                       # Number of stores executed (Count)
system.cpu.executeStats0.instRate                   0                       # Inst execution rate ((Count/Cycle))
system.cpu.executeStats0.numFpRegWrites             0                       # Number of times the floating registers were written (Count)
system.cpu.executeStats0.numIntAluAccesses         5434                       # Number of integer alu accesses (Count)
system.cpu.executeStats0.numIntRegReads          6491                       # Number of times the integer registers were read (Count)
system.cpu.executeStats0.numIntRegWrites         3555                       # Number of times the integer registers were written (Count)
system.cpu.executeStats0.numMemRefs              1930                       # Number of memory refs (Count)
system.cpu.executeStats0.numMiscRegReads          519                       # Number of times the Misc registers were read (Count)
system.cpu.executeStats0.numMiscRegWrites           33                       # Number of times the Misc registers were written (Count)
system.cpu.executeStats0.numVecAluAccesses          248                       # Number of vector alu accesses (Count)
system.cpu.executeStats0.numVecRegReads           197                       # Number of times the vector registers were read (Count)
system.cpu.executeStats0.numVecRegWrites          157                       # Number of times the vector registers were written (Count)
system.cpu.executeStats0.numDiscardedOps            0                       # Number of ops (including micro ops) which were discarded before commit (Count)
system.cpu.fetchStats0.numInsts                  5178                       # Number of instructions fetched (thread level) (Count)
system.cpu.fetchStats0.numOps                    6041                       # Number of ops (including micro ops) fetched (thread level) (Count)
system.cpu.fetchStats0.fetchRate             0.035138                       # Number of inst fetches per cycle ((Count/Cycle))
system.cpu.fetchStats0.numBranches               1082                       # Number of branches fetched (Count)
system.cpu.fetchStats0.branchRate            0.007343                       # Number of branch fetches per cycle (Ratio)
system.cpu.fetchStats0.numFetchSuspends             0                       # Number of times Execute suspended instruction fetching (Count)
system.cpu.icache.demandHits::cpu.inst           4903                       # number of demand (read+write) hits (Count)
system.cpu.icache.demandHits::total              4903                       # number of demand (read+write) hits (Count)
system.cpu.icache.overallHits::cpu.inst          4903                       # number of overall hits (Count)
system.cpu.icache.overallHits::total             4903                       # number of overall hits (Count)
system.cpu.icache.demandMisses::cpu.inst          277                       # number of demand (read+write) misses (Count)
system.cpu.icache.demandMisses::total             277                       # number of demand (read+write) misses (Count)
system.cpu.icache.overallMisses::cpu.inst          277                       # number of overall misses (Count)
system.cpu.icache.overallMisses::total            277                       # number of overall misses (Count)
system.cpu.icache.demandMissLatency::cpu.inst     49272000                       # number of demand (read+write) miss ticks (Tick)
system.cpu.icache.demandMissLatency::total     49272000                       # number of demand (read+write) miss ticks (Tick)
system.cpu.icache.overallMissLatency::cpu.inst     49272000                       # number of overall miss ticks (Tick)
system.cpu.icache.overallMissLatency::total     49272000                       # number of overall miss ticks (Tick)
system.cpu.icache.demandAccesses::cpu.inst         5180                       # number of demand (read+write) accesses (Count)
system.cpu.icache.demandAccesses::total          5180                       # number of demand (read+write) accesses (Count)
system.cpu.icache.overallAccesses::cpu.inst         5180                       # number of overall (read+write) accesses (Count)
system.cpu.icache.overallAccesses::total         5180                       # number of overall (read+write) accesses (Count)
system.cpu.icache.demandMissRate::cpu.inst     0.053475                       # miss rate for demand accesses (Ratio)
system.cpu.icache.demandMissRate::total      0.053475                       # miss rate for demand accesses (Ratio)
system.cpu.icache.overallMissRate::cpu.inst     0.053475                       # miss rate for overall accesses (Ratio)
system.cpu.icache.overallMissRate::total     0.053475                       # miss rate for overall accesses (Ratio)
system.cpu.icache.demandAvgMissLatency::cpu.inst 177877.256318                       # average overall miss latency in ticks ((Tick/Count))
system.cpu.icache.demandAvgMissLatency::total 177877.256318                       # average overall miss latency in ticks ((Tick/Count))
system.cpu.icache.overallAvgMissLatency::cpu.inst 177877.256318                       # average overall miss latency ((Tick/Count))
system.cpu.icache.overallAvgMissLatency::total 177877.256318                       # average overall miss latency ((Tick/Count))
system.cpu.icache.blockedCycles::no_mshrs            0                       # number of cycles access was blocked (Cycle)
system.cpu.icache.blockedCycles::no_targets            0                       # number of cycles access was blocked (Cycle)
system.cpu.icache.blockedCauses::no_mshrs            0                       # number of times access was blocked (Count)
system.cpu.icache.blockedCauses::no_targets            0                       # number of times access was blocked (Count)
system.cpu.icache.avgBlocked::no_mshrs            nan                       # average number of cycles each access was blocked ((Cycle/Count))
system.cpu.icache.avgBlocked::no_targets          nan                       # average number of cycles each access was blocked ((Cycle/Count))
system.cpu.icache.demandMshrMisses::cpu.inst          277                       # number of demand (read+write) MSHR misses (Count)
system.cpu.icache.demandMshrMisses::total          277                       # number of demand (read+write) MSHR misses (Count)
system.cpu.icache.overallMshrMisses::cpu.inst          277                       # number of overall MSHR misses (Count)
system.cpu.icache.overallMshrMisses::total          277                       # number of overall MSHR misses (Count)
system.cpu.icache.demandMshrMissLatency::cpu.inst     46502000                       # number of demand (read+write) MSHR miss ticks (Tick)
system.cpu.icache.demandMshrMissLatency::total     46502000                       # number of demand (read+write) MSHR miss ticks (Tick)
system.cpu.icache.overallMshrMissLatency::cpu.inst     46502000                       # number of overall MSHR miss ticks (Tick)
system.cpu.icache.overallMshrMissLatency::total     46502000                       # number of overall MSHR miss ticks (Tick)
system.cpu.icache.demandMshrMissRate::cpu.inst     0.053475                       # mshr miss ratio for demand accesses (Ratio)
system.cpu.icache.demandMshrMissRate::total     0.053475                       # mshr miss ratio for demand accesses (Ratio)
system.cpu.icache.overallMshrMissRate::cpu.inst     0.053475                       # mshr miss ratio for overall accesses (Ratio)
system.cpu.icache.overallMshrMissRate::total     0.053475                       # mshr miss ratio for overall accesses (Ratio)
system.cpu.icache.demandAvgMshrMissLatency::cpu.inst 167877.256318                       # average overall mshr miss latency ((Tick/Count))
system.cpu.icache.demandAvgMshrMissLatency::total 167877.256318                       # average overall mshr miss latency ((Tick/Count))
system.cpu.icache.overallAvgMshrMissLatency::cpu.inst 167877.256318                       # average overall mshr miss latency ((Tick/Count))
system.cpu.icache.overallAvgMshrMissLatency::total 167877.256318                       # average overall mshr miss latency ((Tick/Count))
system.cpu.icache.replacements                      0                       # number of replacements (Count)
system.cpu.icache.ReadReq.hits::cpu.inst         4903                       # number of ReadReq hits (Count)
system.cpu.icache.ReadReq.hits::total            4903                       # number of ReadReq hits (Count)
system.cpu.icache.ReadReq.misses::cpu.inst          277                       # number of ReadReq misses (Count)
system.cpu.icache.ReadReq.misses::total           277                       # number of ReadReq misses (Count)
system.cpu.icache.ReadReq.missLatency::cpu.inst     49272000                       # number of ReadReq miss ticks (Tick)
system.cpu.icache.ReadReq.missLatency::total     49272000                       # number of ReadReq miss ticks (Tick)
system.cpu.icache.ReadReq.accesses::cpu.inst         5180                       # number of ReadReq accesses(hits+misses) (Count)
system.cpu.icache.ReadReq.accesses::total         5180                       # number of ReadReq accesses(hits+misses) (Count)
system.cpu.icache.ReadReq.missRate::cpu.inst     0.053475                       # miss rate for ReadReq accesses (Ratio)
system.cpu.icache.ReadReq.missRate::total     0.053475                       # miss rate for ReadReq accesses (Ratio)
system.cpu.icache.ReadReq.avgMissLatency::cpu.inst 177877.256318                       # average ReadReq miss latency ((Tick/Count))
system.cpu.icache.ReadReq.avgMissLatency::total 177877.256318                       # average ReadReq miss latency ((Tick/Count))
system.cpu.icache.ReadReq.mshrMisses::cpu.inst          277                       # number of ReadReq MSHR misses (Count)
system.cpu.icache.ReadReq.mshrMisses::total          277                       # number of ReadReq MSHR misses (Count)
system.cpu.icache.ReadReq.mshrMissLatency::cpu.inst     46502000                       # number of ReadReq MSHR miss ticks (Tick)
system.cpu.icache.ReadReq.mshrMissLatency::total     46502000                       # number of ReadReq MSHR miss ticks (Tick)
system.cpu.icache.ReadReq.mshrMissRate::cpu.inst     0.053475                       # mshr miss rate for ReadReq accesses (Ratio)
system.cpu.icache.ReadReq.mshrMissRate::total     0.053475                       # mshr miss rate for ReadReq accesses (Ratio)
system.cpu.icache.ReadReq.avgMshrMissLatency::cpu.inst 167877.256318                       # average ReadReq mshr miss latency ((Tick/Count))
system.cpu.icache.ReadReq.avgMshrMissLatency::total 167877.256318                       # average ReadReq mshr miss latency ((Tick/Count))
system.cpu.icache.power_state.pwrStateResidencyTicks::UNDEFINED    147361000                       # Cumulative time (in ticks) in various power states (Tick)
system.cpu.icache.tags.tagsInUse           126.201771                       # Average ticks per tags in use ((Tick/Count))
system.cpu.icache.tags.totalRefs                    0                       # Total number of references to valid blocks. (Count)
system.cpu.icache.tags.sampledRefs                  0                       # Sample count of references to valid blocks. (Count)
system.cpu.icache.tags.avgRefs                    nan                       # Average number of references to valid blocks. ((Count/Count))
system.cpu.icache.tags.warmupTick              121000                       # The tick when the warmup percentage was hit. (Tick)
system.cpu.icache.tags.occupancies::cpu.inst   126.201771                       # Average occupied blocks per tick, per requestor ((Count/Tick))
system.cpu.icache.tags.avgOccs::cpu.inst     0.123244                       # Average percentage of cache occupancy ((Ratio/Tick))
system.cpu.icache.tags.avgOccs::total        0.123244                       # Average percentage of cache occupancy ((Ratio/Tick))
system.cpu.icache.tags.occupanciesTaskId::1024          277                       # Occupied blocks per task id (Count)
system.cpu.icache.tags.ageTaskId_1024::0           22                       # Occupied blocks per task id, per block age (Count)
system.cpu.icache.tags.ageTaskId_1024::1          188                       # Occupied blocks per task id, per block age (Count)
system.cpu.icache.tags.ageTaskId_1024::2           67                       # Occupied blocks per task id, per block age (Count)
system.cpu.icache.tags.ratioOccsTaskId::1024     0.270508                       # Ratio of occupied blocks and all blocks, per task id (Ratio)
system.cpu.icache.tags.tagAccesses              41717                       # Number of tag accesses (Count)
system.cpu.icache.tags.dataAccesses             41717                       # Number of data accesses (Count)
system.cpu.icache.tags.power_state.pwrStateResidencyTicks::UNDEFINED    147361000                       # Cumulative time (in ticks) in various power states (Tick)
system.cpu.mmu.alignFaults                          0                       # Number of MMU faults due to alignment restrictions (Count)
system.cpu.mmu.prefetchFaults                       0                       # Number of MMU faults due to prefetch (Count)
system.cpu.mmu.domainFaults                         0                       # Number of MMU faults due to domain restrictions (Count)
system.cpu.mmu.permsFaults                          0                       # Number of MMU faults due to permissions restrictions (Count)
system.cpu.mmu.dtb.readHits                         0                       # Read hits (Count)
system.cpu.mmu.dtb.readMisses                       0                       # Read misses (Count)
system.cpu.mmu.dtb.writeHits                        0                       # Write hits (Count)
system.cpu.mmu.dtb.writeMisses                      0                       # Write misses (Count)
system.cpu.mmu.dtb.inserts                          0                       # Number of times an entry is inserted into the TLB (Count)
system.cpu.mmu.dtb.flushTlb                         0                       # Number of times a TLB invalidation was requested (Count)
system.cpu.mmu.dtb.flushedEntries                   0                       # Number of entries that have been flushed from TLB (Count)
system.cpu.mmu.dtb.readAccesses                     0                       # Read accesses (Count)
system.cpu.mmu.dtb.writeAccesses                    0                       # Write accesses (Count)
system.cpu.mmu.dtb.hits                             0                       # Total TLB (inst and data) hits (Count)
system.cpu.mmu.dtb.misses                           0                       # Total TLB (inst and data) misses (Count)
system.cpu.mmu.dtb.accesses                         0                       # Total TLB (inst and data) accesses (Count)
system.cpu.mmu.dtb_walker.walks                     0                       # Table walker walks requested (Count)
system.cpu.mmu.dtb_walker.requestOrigin_Requested::Data            0                       # Table walker requests started/completed, data/inst (Count)
system.cpu.mmu.dtb_walker.requestOrigin_Requested::Inst            0                       # Table walker requests started/completed, data/inst (Count)
system.cpu.mmu.dtb_walker.requestOrigin_Requested::total            0                       # Table walker requests started/completed, data/inst (Count)
system.cpu.mmu.dtb_walker.requestOrigin_Completed::Data            0                       # Table walker requests started/completed, data/inst (Count)
system.cpu.mmu.dtb_walker.requestOrigin_Completed::Inst            0                       # Table walker requests started/completed, data/inst (Count)
system.cpu.mmu.dtb_walker.requestOrigin_Completed::total            0                       # Table walker requests started/completed, data/inst (Count)
system.cpu.mmu.dtb_walker.requestOrigin::total            0                       # Table walker requests started/completed, data/inst (Count)
system.cpu.mmu.dtb_walker.power_state.pwrStateResidencyTicks::UNDEFINED    147361000                       # Cumulative time (in ticks) in various power states (Tick)
system.cpu.mmu.itb.instHits                         0                       # Inst hits (Count)
system.cpu.mmu.itb.instMisses                       0                       # Inst misses (Count)
system.cpu.mmu.itb.inserts                          0                       # Number of times an entry is inserted into the TLB (Count)
system.cpu.mmu.itb.flushTlb                         0                       # Number of times a TLB invalidation was requested (Count)
system.cpu.mmu.itb.flushedEntries                   0                       # Number of entries that have been flushed from TLB (Count)
system.cpu.mmu.itb.instAccesses                     0                       # Inst accesses (Count)
system.cpu.mmu.itb.hits                             0                       # Total TLB (inst and data) hits (Count)
system.cpu.mmu.itb.misses                           0                       # Total TLB (inst and data) misses (Count)
system.cpu.mmu.itb.accesses                         0                       # Total TLB (inst and data) accesses (Count)
system.cpu.mmu.itb_walker.walks                     0                       # Table walker walks requested (Count)
system.cpu.mmu.itb_walker.requestOrigin_Requested::Data            0                       # Table walker requests started/completed, data/inst (Count)
system.cpu.mmu.itb_walker.requestOrigin_Requested::Inst            0                       # Table walker requests started/completed, data/inst (Count)
system.cpu.mmu.itb_walker.requestOrigin_Requested::total            0                       # Table walker requests started/completed, data/inst (Count)
system.cpu.mmu.itb_walker.requestOrigin_Completed::Data            0                       # Table walker requests started/completed, data/inst (Count)
system.cpu.mmu.itb_walker.requestOrigin_Completed::Inst            0                       # Table walker requests started/completed, data/inst (Count)
system.cpu.mmu.itb_walker.requestOrigin_Completed::total            0                       # Table walker requests started/completed, data/inst (Count)
system.cpu.mmu.itb_walker.requestOrigin::total            0                       # Table walker requests started/completed, data/inst (Count)
system.cpu.mmu.itb_walker.power_state.pwrStateResidencyTicks::UNDEFINED    147361000                       # Cumulative time (in ticks) in various power states (Tick)
system.cpu.mmu.l2_shared.instHits                   0                       # Inst hits (Count)
system.cpu.mmu.l2_shared.instMisses                 0                       # Inst misses (Count)
system.cpu.mmu.l2_shared.inserts                    0                       # Number of times an entry is inserted into the TLB (Count)
system.cpu.mmu.l2_shared.flushTlb                   0                       # Number of times a TLB invalidation was requested (Count)
system.cpu.mmu.l2_shared.flushedEntries             0                       # Number of entries that have been flushed from TLB (Count)
system.cpu.mmu.l2_shared.instAccesses               0                       # Inst accesses (Count)
system.cpu.mmu.l2_shared.hits                       0                       # Total TLB (inst and data) hits (Count)
system.cpu.mmu.l2_shared.misses                     0                       # Total TLB (inst and data) misses (Count)
system.cpu.mmu.l2_shared.accesses                   0                       # Total TLB (inst and data) accesses (Count)
system.cpu.mmu.stage2_dtb.readHits                  0                       # Read hits (Count)
system.cpu.mmu.stage2_dtb.readMisses                0                       # Read misses (Count)
system.cpu.mmu.stage2_dtb.writeHits                 0                       # Write hits (Count)
system.cpu.mmu.stage2_dtb.writeMisses               0                       # Write misses (Count)
system.cpu.mmu.stage2_dtb.inserts                   0                       # Number of times an entry is inserted into the TLB (Count)
system.cpu.mmu.stage2_dtb.flushTlb                  0                       # Number of times a TLB invalidation was requested (Count)
system.cpu.mmu.stage2_dtb.flushedEntries            0                       # Number of entries that have been flushed from TLB (Count)
system.cpu.mmu.stage2_dtb.readAccesses              0                       # Read accesses (Count)
system.cpu.mmu.stage2_dtb.writeAccesses             0                       # Write accesses (Count)
system.cpu.mmu.stage2_dtb.hits                      0                       # Total TLB (inst and data) hits (Count)
system.cpu.mmu.stage2_dtb.misses                    0                       # Total TLB (inst and data) misses (Count)
system.cpu.mmu.stage2_dtb.accesses                  0                       # Total TLB (inst and data) accesses (Count)
system.cpu.mmu.stage2_dtb_walker.walks              0                       # Table walker walks requested (Count)
system.cpu.mmu.stage2_dtb_walker.requestOrigin_Requested::Data            0                       # Table walker requests started/completed, data/inst (Count)
system.cpu.mmu.stage2_dtb_walker.requestOrigin_Requested::Inst            0                       # Table walker requests started/completed, data/inst (Count)
system.cpu.mmu.stage2_dtb_walker.requestOrigin_Requested::total            0                       # Table walker requests started/completed, data/inst (Count)
system.cpu.mmu.stage2_dtb_walker.requestOrigin_Completed::Data            0                       # Table walker requests started/completed, data/inst (Count)
system.cpu.mmu.stage2_dtb_walker.requestOrigin_Completed::Inst            0                       # Table walker requests started/completed, data/inst (Count)
system.cpu.mmu.stage2_dtb_walker.requestOrigin_Completed::total            0                       # Table walker requests started/completed, data/inst (Count)
system.cpu.mmu.stage2_dtb_walker.requestOrigin::total            0                       # Table walker requests started/completed, data/inst (Count)
system.cpu.mmu.stage2_dtb_walker.power_state.pwrStateResidencyTicks::UNDEFINED    147361000                       # Cumulative time (in ticks) in various power states (Tick)
system.cpu.mmu.stage2_itb.instHits                  0                       # Inst hits (Count)
system.cpu.mmu.stage2_itb.instMisses                0                       # Inst misses (Count)
system.cpu.mmu.stage2_itb.inserts                   0                       # Number of times an entry is inserted into the TLB (Count)
system.cpu.mmu.stage2_itb.flushTlb                  0                       # Number of times a TLB invalidation was requested (Count)
system.cpu.mmu.stage2_itb.flushedEntries            0                       # Number of entries that have been flushed from TLB (Count)
system.cpu.mmu.stage2_itb.instAccesses              0                       # Inst accesses (Count)
system.cpu.mmu.stage2_itb.hits                      0                       # Total TLB (inst and data) hits (Count)
system.cpu.mmu.stage2_itb.misses                    0                       # Total TLB (inst and data) misses (Count)
system.cpu.mmu.stage2_itb.accesses                  0                       # Total TLB (inst and data) accesses (Count)
system.cpu.mmu.stage2_itb_walker.walks              0                       # Table walker walks requested (Count)
system.cpu.mmu.stage2_itb_walker.requestOrigin_Requested::Data            0                       # Table walker requests started/completed, data/inst (Count)
system.cpu.mmu.stage2_itb_walker.requestOrigin_Requested::Inst            0                       # Table walker requests started/completed, data/inst (Count)
system.cpu.mmu.stage2_itb_walker.requestOrigin_Requested::total            0                       # Table walker requests started/completed, data/inst (Count)
system.cpu.mmu.stage2_itb_walker.requestOrigin_Completed::Data            0                       # Table walker requests started/completed, data/inst (Count)
system.cpu.mmu.stage2_itb_walker.requestOrigin_Completed::Inst            0                       # Table walker requests started/completed, data/inst (Count)
system.cpu.mmu.stage2_itb_walker.requestOrigin_Completed::total            0                       # Table walker requests started/completed, data/inst (Count)
system.cpu.mmu.stage2_itb_walker.requestOrigin::total            0                       # Table walker requests started/completed, data/inst (Count)
system.cpu.mmu.stage2_itb_walker.power_state.pwrStateResidencyTicks::UNDEFINED    147361000                       # Cumulative time (in ticks) in various power states (Tick)
system.cpu.power_state.pwrStateResidencyTicks::ON    147361000                       # Cumulative time (in ticks) in various power states (Tick)
system.cpu.thread_0.numInsts                        0                       # Number of Instructions committed (Count)
system.cpu.thread_0.numOps                          0                       # Number of Ops committed (Count)
system.cpu.thread_0.numMemRefs                      0                       # Number of Memory References (Count)
system.cpu.workload.numSyscalls                    10                       # Number of system calls (Count)
system.l2bus.transDist::ReadResp                 6513                       # Transaction distribution (Count)
system.l2bus.transDist::WritebackDirty              8                       # Transaction distribution (Count)
system.l2bus.transDist::CleanEvict                 12                       # Transaction distribution (Count)
system.l2bus.transDist::ReadExReq                  85                       # Transaction distribution (Count)
system.l2bus.transDist::ReadExResp                 85                       # Transaction distribution (Count)
system.l2bus.transDist::ReadSharedReq            6513                       # Transaction distribution (Count)
system.l2bus.transDist::InvalidateReq            6235                       # Transaction distribution (Count)
system.l2bus.pktCount_system.l2cache.mem_side_port::system.mem_ctrl1.port          872                       # Packet count per connected requestor and responder (Count)
system.l2bus.pktCount_system.l2cache.mem_side_port::system.mem_ctrl2.port        18579                       # Packet count per connected requestor and responder (Count)
system.l2bus.pktCount_system.l2cache.mem_side_port::total        19451                       # Packet count per connected requestor and responder (Count)
system.l2bus.pktSize_system.l2cache.mem_side_port::system.mem_ctrl1.port        27904                       # Cumulative packet size per connected requestor and responder (Byte)
system.l2bus.pktSize_system.l2cache.mem_side_port::system.mem_ctrl2.port       394880                       # Cumulative packet size per connected requestor and responder (Byte)
system.l2bus.pktSize_system.l2cache.mem_side_port::total       422784                       # Cumulative packet size per connected requestor and responder (Byte)
system.l2bus.snoops                                 0                       # Total snoops (Count)
system.l2bus.snoopTraffic                           0                       # Total snoop traffic (Byte)
system.l2bus.snoopFanout::samples               12833                       # Request fanout histogram (Count)
system.l2bus.snoopFanout::mean                      0                       # Request fanout histogram (Count)
system.l2bus.snoopFanout::stdev                     0                       # Request fanout histogram (Count)
system.l2bus.snoopFanout::underflows                0      0.00%      0.00% # Request fanout histogram (Count)
system.l2bus.snoopFanout::0                     12833    100.00%    100.00% # Request fanout histogram (Count)
system.l2bus.snoopFanout::1                         0      0.00%    100.00% # Request fanout histogram (Count)
system.l2bus.snoopFanout::overflows                 0      0.00%    100.00% # Request fanout histogram (Count)
system.l2bus.snoopFanout::min_value                 0                       # Request fanout histogram (Count)
system.l2bus.snoopFanout::max_value                 0                       # Request fanout histogram (Count)
system.l2bus.snoopFanout::total                 12833                       # Request fanout histogram (Count)
system.l2bus.power_state.pwrStateResidencyTicks::UNDEFINED    147361000                       # Cumulative time (in ticks) in various power states (Tick)
system.l2bus.reqLayer0.occupancy               436017                       # Layer occupancy (ticks) (Tick)
system.l2bus.reqLayer0.utilization                0.0                       # Layer utilization (Ratio)
system.l2bus.reqLayer1.occupancy             16079615                       # Layer occupancy (ticks) (Tick)
system.l2bus.reqLayer1.utilization                0.1                       # Layer utilization (Ratio)
system.l2bus.respLayer0.occupancy            35250688                       # Layer occupancy (ticks) (Tick)
system.l2bus.respLayer0.utilization               0.2                       # Layer utilization (Ratio)
system.l2bus.snoop_filter.totRequests           12853                       # Total number of requests made to the snoop filter. (Count)
system.l2bus.snoop_filter.hitSingleRequests           20                       # Number of requests hitting in the snoop filter with a single holder of the requested data. (Count)
system.l2bus.snoop_filter.hitMultiRequests            0                       # Number of requests hitting in the snoop filter with multiple (>1) holders of the requested data. (Count)
system.l2bus.snoop_filter.totSnoops                 0                       # Total number of snoops made to the snoop filter. (Count)
system.l2bus.snoop_filter.hitSingleSnoops            0                       # Number of snoops hitting in the snoop filter with a single holder of the requested data. (Count)
system.l2bus.snoop_filter.hitMultiSnoops            0                       # Number of snoops hitting in the snoop filter with multiple (>1) holders of the requested data. (Count)
system.l2cache.demandHits::cpu.inst                 7                       # number of demand (read+write) hits (Count)
system.l2cache.demandHits::cpu.data                 6                       # number of demand (read+write) hits (Count)
system.l2cache.demandHits::trafficgen           18785                       # number of demand (read+write) hits (Count)
system.l2cache.demandHits::total                18798                       # number of demand (read+write) hits (Count)
system.l2cache.overallHits::cpu.inst                7                       # number of overall hits (Count)
system.l2cache.overallHits::cpu.data                6                       # number of overall hits (Count)
system.l2cache.overallHits::trafficgen          18785                       # number of overall hits (Count)
system.l2cache.overallHits::total               18798                       # number of overall hits (Count)
system.l2cache.demandMisses::cpu.inst             270                       # number of demand (read+write) misses (Count)
system.l2cache.demandMisses::cpu.data             166                       # number of demand (read+write) misses (Count)
system.l2cache.demandMisses::trafficgen         12399                       # number of demand (read+write) misses (Count)
system.l2cache.demandMisses::total              12835                       # number of demand (read+write) misses (Count)
system.l2cache.overallMisses::cpu.inst            270                       # number of overall misses (Count)
system.l2cache.overallMisses::cpu.data            166                       # number of overall misses (Count)
system.l2cache.overallMisses::trafficgen        12399                       # number of overall misses (Count)
system.l2cache.overallMisses::total             12835                       # number of overall misses (Count)
system.l2cache.demandMissLatency::cpu.inst     30913995                       # number of demand (read+write) miss ticks (Tick)
system.l2cache.demandMissLatency::cpu.data     19214988                       # number of demand (read+write) miss ticks (Tick)
system.l2cache.demandMissLatency::trafficgen   1506109014                       # number of demand (read+write) miss ticks (Tick)
system.l2cache.demandMissLatency::total    1556237997                       # number of demand (read+write) miss ticks (Tick)
system.l2cache.overallMissLatency::cpu.inst     30913995                       # number of overall miss ticks (Tick)
system.l2cache.overallMissLatency::cpu.data     19214988                       # number of overall miss ticks (Tick)
system.l2cache.overallMissLatency::trafficgen   1506109014                       # number of overall miss ticks (Tick)
system.l2cache.overallMissLatency::total   1556237997                       # number of overall miss ticks (Tick)
system.l2cache.demandAccesses::cpu.inst           277                       # number of demand (read+write) accesses (Count)
system.l2cache.demandAccesses::cpu.data           172                       # number of demand (read+write) accesses (Count)
system.l2cache.demandAccesses::trafficgen        31184                       # number of demand (read+write) accesses (Count)
system.l2cache.demandAccesses::total            31633                       # number of demand (read+write) accesses (Count)
system.l2cache.overallAccesses::cpu.inst          277                       # number of overall (read+write) accesses (Count)
system.l2cache.overallAccesses::cpu.data          172                       # number of overall (read+write) accesses (Count)
system.l2cache.overallAccesses::trafficgen        31184                       # number of overall (read+write) accesses (Count)
system.l2cache.overallAccesses::total           31633                       # number of overall (read+write) accesses (Count)
system.l2cache.demandMissRate::cpu.inst      0.974729                       # miss rate for demand accesses (Ratio)
system.l2cache.demandMissRate::cpu.data      0.965116                       # miss rate for demand accesses (Ratio)
system.l2cache.demandMissRate::trafficgen     0.397608                       # miss rate for demand accesses (Ratio)
system.l2cache.demandMissRate::total         0.405747                       # miss rate for demand accesses (Ratio)
system.l2cache.overallMissRate::cpu.inst     0.974729                       # miss rate for overall accesses (Ratio)
system.l2cache.overallMissRate::cpu.data     0.965116                       # miss rate for overall accesses (Ratio)
system.l2cache.overallMissRate::trafficgen     0.397608                       # miss rate for overall accesses (Ratio)
system.l2cache.overallMissRate::total        0.405747                       # miss rate for overall accesses (Ratio)
system.l2cache.demandAvgMissLatency::cpu.inst 114496.277778                       # average overall miss latency in ticks ((Tick/Count))
system.l2cache.demandAvgMissLatency::cpu.data 115752.939759                       # average overall miss latency in ticks ((Tick/Count))
system.l2cache.demandAvgMissLatency::trafficgen 121470.200339                       # average overall miss latency in ticks ((Tick/Count))
system.l2cache.demandAvgMissLatency::total 121249.551772                       # average overall miss latency in ticks ((Tick/Count))
system.l2cache.overallAvgMissLatency::cpu.inst 114496.277778                       # average overall miss latency ((Tick/Count))
system.l2cache.overallAvgMissLatency::cpu.data 115752.939759                       # average overall miss latency ((Tick/Count))
system.l2cache.overallAvgMissLatency::trafficgen 121470.200339                       # average overall miss latency ((Tick/Count))
system.l2cache.overallAvgMissLatency::total 121249.551772                       # average overall miss latency ((Tick/Count))
system.l2cache.blockedCycles::no_mshrs           3134                       # number of cycles access was blocked (Cycle)
system.l2cache.blockedCycles::no_targets            0                       # number of cycles access was blocked (Cycle)
system.l2cache.blockedCauses::no_mshrs            767                       # number of times access was blocked (Count)
system.l2cache.blockedCauses::no_targets            0                       # number of times access was blocked (Count)
system.l2cache.avgBlocked::no_mshrs          4.086050                       # average number of cycles each access was blocked ((Cycle/Count))
system.l2cache.avgBlocked::no_targets             nan                       # average number of cycles each access was blocked ((Cycle/Count))
system.l2cache.writebacks::writebacks               8                       # number of writebacks (Count)
system.l2cache.writebacks::total                    8                       # number of writebacks (Count)
system.l2cache.demandMshrHits::trafficgen            2                       # number of demand (read+write) MSHR hits (Count)
system.l2cache.demandMshrHits::total                2                       # number of demand (read+write) MSHR hits (Count)
system.l2cache.overallMshrHits::trafficgen            2                       # number of overall MSHR hits (Count)
system.l2cache.overallMshrHits::total               2                       # number of overall MSHR hits (Count)
system.l2cache.demandMshrMisses::cpu.inst          270                       # number of demand (read+write) MSHR misses (Count)
system.l2cache.demandMshrMisses::cpu.data          166                       # number of demand (read+write) MSHR misses (Count)
system.l2cache.demandMshrMisses::trafficgen        12397                       # number of demand (read+write) MSHR misses (Count)
system.l2cache.demandMshrMisses::total          12833                       # number of demand (read+write) MSHR misses (Count)
system.l2cache.overallMshrMisses::cpu.inst          270                       # number of overall MSHR misses (Count)
system.l2cache.overallMshrMisses::cpu.data          166                       # number of overall MSHR misses (Count)
system.l2cache.overallMshrMisses::trafficgen        12397                       # number of overall MSHR misses (Count)
system.l2cache.overallMshrMisses::total         12833                       # number of overall MSHR misses (Count)
system.l2cache.demandMshrMissLatency::cpu.inst     28211997                       # number of demand (read+write) MSHR miss ticks (Tick)
system.l2cache.demandMshrMissLatency::cpu.data     17552990                       # number of demand (read+write) MSHR miss ticks (Tick)
system.l2cache.demandMshrMissLatency::trafficgen   1379680688                       # number of demand (read+write) MSHR miss ticks (Tick)
system.l2cache.demandMshrMissLatency::total   1425445675                       # number of demand (read+write) MSHR miss ticks (Tick)
system.l2cache.overallMshrMissLatency::cpu.inst     28211997                       # number of overall MSHR miss ticks (Tick)
system.l2cache.overallMshrMissLatency::cpu.data     17552990                       # number of overall MSHR miss ticks (Tick)
system.l2cache.overallMshrMissLatency::trafficgen   1379680688                       # number of overall MSHR miss ticks (Tick)
system.l2cache.overallMshrMissLatency::total   1425445675                       # number of overall MSHR miss ticks (Tick)
system.l2cache.demandMshrMissRate::cpu.inst     0.974729                       # mshr miss ratio for demand accesses (Ratio)
system.l2cache.demandMshrMissRate::cpu.data     0.965116                       # mshr miss ratio for demand accesses (Ratio)
system.l2cache.demandMshrMissRate::trafficgen     0.397544                       # mshr miss ratio for demand accesses (Ratio)
system.l2cache.demandMshrMissRate::total     0.405684                       # mshr miss ratio for demand accesses (Ratio)
system.l2cache.overallMshrMissRate::cpu.inst     0.974729                       # mshr miss ratio for overall accesses (Ratio)
system.l2cache.overallMshrMissRate::cpu.data     0.965116                       # mshr miss ratio for overall accesses (Ratio)
system.l2cache.overallMshrMissRate::trafficgen     0.397544                       # mshr miss ratio for overall accesses (Ratio)
system.l2cache.overallMshrMissRate::total     0.405684                       # mshr miss ratio for overall accesses (Ratio)
system.l2cache.demandAvgMshrMissLatency::cpu.inst 104488.877778                       # average overall mshr miss latency ((Tick/Count))
system.l2cache.demandAvgMshrMissLatency::cpu.data 105740.903614                       # average overall mshr miss latency ((Tick/Count))
system.l2cache.demandAvgMshrMissLatency::trafficgen 111291.496975                       # average overall mshr miss latency ((Tick/Count))
system.l2cache.demandAvgMshrMissLatency::total 111076.574067                       # average overall mshr miss latency ((Tick/Count))
system.l2cache.overallAvgMshrMissLatency::cpu.inst 104488.877778                       # average overall mshr miss latency ((Tick/Count))
system.l2cache.overallAvgMshrMissLatency::cpu.data 105740.903614                       # average overall mshr miss latency ((Tick/Count))
system.l2cache.overallAvgMshrMissLatency::trafficgen 111291.496975                       # average overall mshr miss latency ((Tick/Count))
system.l2cache.overallAvgMshrMissLatency::total 111076.574067                       # average overall mshr miss latency ((Tick/Count))
system.l2cache.replacements                        24                       # number of replacements (Count)
system.l2cache.ReadExReq.misses::cpu.data           85                       # number of ReadExReq misses (Count)
system.l2cache.ReadExReq.misses::total             85                       # number of ReadExReq misses (Count)
system.l2cache.ReadExReq.missLatency::cpu.data      9965997                       # number of ReadExReq miss ticks (Tick)
system.l2cache.ReadExReq.missLatency::total      9965997                       # number of ReadExReq miss ticks (Tick)
system.l2cache.ReadExReq.accesses::cpu.data           85                       # number of ReadExReq accesses(hits+misses) (Count)
system.l2cache.ReadExReq.accesses::total           85                       # number of ReadExReq accesses(hits+misses) (Count)
system.l2cache.ReadExReq.missRate::cpu.data            1                       # miss rate for ReadExReq accesses (Ratio)
system.l2cache.ReadExReq.missRate::total            1                       # miss rate for ReadExReq accesses (Ratio)
system.l2cache.ReadExReq.avgMissLatency::cpu.data 117247.023529                       # average ReadExReq miss latency ((Tick/Count))
system.l2cache.ReadExReq.avgMissLatency::total 117247.023529                       # average ReadExReq miss latency ((Tick/Count))
system.l2cache.ReadExReq.mshrMisses::cpu.data           85                       # number of ReadExReq MSHR misses (Count)
system.l2cache.ReadExReq.mshrMisses::total           85                       # number of ReadExReq MSHR misses (Count)
system.l2cache.ReadExReq.mshrMissLatency::cpu.data      9114998                       # number of ReadExReq MSHR miss ticks (Tick)
system.l2cache.ReadExReq.mshrMissLatency::total      9114998                       # number of ReadExReq MSHR miss ticks (Tick)
system.l2cache.ReadExReq.mshrMissRate::cpu.data            1                       # mshr miss rate for ReadExReq accesses (Ratio)
system.l2cache.ReadExReq.mshrMissRate::total            1                       # mshr miss rate for ReadExReq accesses (Ratio)
system.l2cache.ReadExReq.avgMshrMissLatency::cpu.data 107235.270588                       # average ReadExReq mshr miss latency ((Tick/Count))
system.l2cache.ReadExReq.avgMshrMissLatency::total 107235.270588                       # average ReadExReq mshr miss latency ((Tick/Count))
system.l2cache.ReadReq.hits::trafficgen         11973                       # number of ReadReq hits (Count)
system.l2cache.ReadReq.hits::total              11973                       # number of ReadReq hits (Count)
[...]
system.mem_ctrl2.dram.bytesWritten::total          512                       # Number of bytes written to this memory (Byte)
system.mem_ctrl2.dram.numReads::trafficgen         6162                       # Number of read requests responded to by this memory (Count)
system.mem_ctrl2.dram.numReads::total            6162                       # Number of read requests responded to by this memory (Count)
system.mem_ctrl2.dram.numWrites::writebacks            8                       # Number of write requests responded to by this memory (Count)
system.mem_ctrl2.dram.numWrites::total              8                       # Number of write requests responded to by this memory (Count)
system.mem_ctrl2.dram.bwRead::trafficgen   2676203337                       # Total read bandwidth from this memory ((Byte/Second))
system.mem_ctrl2.dram.bwRead::total        2676203337                       # Total read bandwidth from this memory ((Byte/Second))
system.mem_ctrl2.dram.bwWrite::writebacks      3474461                       # Write bandwidth from this memory ((Byte/Second))
system.mem_ctrl2.dram.bwWrite::total          3474461                       # Write bandwidth from this memory ((Byte/Second))
system.mem_ctrl2.dram.bwTotal::writebacks      3474461                       # Total bandwidth to/from this memory ((Byte/Second))
system.mem_ctrl2.dram.bwTotal::trafficgen   2676203337                       # Total bandwidth to/from this memory ((Byte/Second))
system.mem_ctrl2.dram.bwTotal::total       2679677798                       # Total bandwidth to/from this memory ((Byte/Second))
system.mem_ctrl2.dram.readBursts                 6162                       # Number of DRAM read bursts (Count)
system.mem_ctrl2.dram.writeBursts                   0                       # Number of DRAM write bursts (Count)
system.mem_ctrl2.dram.perBankRdBursts::0          399                       # Per bank write bursts (Count)
system.mem_ctrl2.dram.perBankRdBursts::1          383                       # Per bank write bursts (Count)
system.mem_ctrl2.dram.perBankRdBursts::2          388                       # Per bank write bursts (Count)
system.mem_ctrl2.dram.perBankRdBursts::3          382                       # Per bank write bursts (Count)
system.mem_ctrl2.dram.perBankRdBursts::4          383                       # Per bank write bursts (Count)
system.mem_ctrl2.dram.perBankRdBursts::5          417                       # Per bank write bursts (Count)
system.mem_ctrl2.dram.perBankRdBursts::6          427                       # Per bank write bursts (Count)
system.mem_ctrl2.dram.perBankRdBursts::7          407                       # Per bank write bursts (Count)
system.mem_ctrl2.dram.perBankRdBursts::8          389                       # Per bank write bursts (Count)
system.mem_ctrl2.dram.perBankRdBursts::9          340                       # Per bank write bursts (Count)
system.mem_ctrl2.dram.perBankRdBursts::10          379                       # Per bank write bursts (Count)
system.mem_ctrl2.dram.perBankRdBursts::11          345                       # Per bank write bursts (Count)
system.mem_ctrl2.dram.perBankRdBursts::12          390                       # Per bank write bursts (Count)
system.mem_ctrl2.dram.perBankRdBursts::13          379                       # Per bank write bursts (Count)
system.mem_ctrl2.dram.perBankRdBursts::14          378                       # Per bank write bursts (Count)
system.mem_ctrl2.dram.perBankRdBursts::15          376                       # Per bank write bursts (Count)
system.mem_ctrl2.dram.perBankWrBursts::0            0                       # Per bank write bursts (Count)
system.mem_ctrl2.dram.perBankWrBursts::1            0                       # Per bank write bursts (Count)
system.mem_ctrl2.dram.perBankWrBursts::2            0                       # Per bank write bursts (Count)
system.mem_ctrl2.dram.perBankWrBursts::3            0                       # Per bank write bursts (Count)
system.mem_ctrl2.dram.perBankWrBursts::4            0                       # Per bank write bursts (Count)
system.mem_ctrl2.dram.perBankWrBursts::5            0                       # Per bank write bursts (Count)
system.mem_ctrl2.dram.perBankWrBursts::6            0                       # Per bank write bursts (Count)
system.mem_ctrl2.dram.perBankWrBursts::7            0                       # Per bank write bursts (Count)
system.mem_ctrl2.dram.perBankWrBursts::8            0                       # Per bank write bursts (Count)
system.mem_ctrl2.dram.perBankWrBursts::9            0                       # Per bank write bursts (Count)
system.mem_ctrl2.dram.perBankWrBursts::10            0                       # Per bank write bursts (Count)
system.mem_ctrl2.dram.perBankWrBursts::11            0                       # Per bank write bursts (Count)
system.mem_ctrl2.dram.perBankWrBursts::12            0                       # Per bank write bursts (Count)
system.mem_ctrl2.dram.perBankWrBursts::13            0                       # Per bank write bursts (Count)
system.mem_ctrl2.dram.perBankWrBursts::14            0                       # Per bank write bursts (Count)
system.mem_ctrl2.dram.perBankWrBursts::15            0                       # Per bank write bursts (Count)
system.mem_ctrl2.dram.totQLat               701050611                       # Total ticks spent queuing (Tick)
system.mem_ctrl2.dram.totBusLat              53794260                       # Total ticks spent in databus transfers (Tick)
system.mem_ctrl2.dram.totMemAccLat          898296231                       # Total ticks spent from burst creation until serviced by the DRAM (Tick)
system.mem_ctrl2.dram.avgQLat               113769.98                       # Average queueing delay per DRAM burst ((Tick/Count))
system.mem_ctrl2.dram.avgBusLat               8730.00                       # Average bus latency per DRAM burst ((Tick/Count))
system.mem_ctrl2.dram.avgMemAccLat          145779.98                       # Average memory access latency per DRAM burst ((Tick/Count))
system.mem_ctrl2.dram.readRowHits                 910                       # Number of row buffer hits during reads (Count)
system.mem_ctrl2.dram.writeRowHits                  0                       # Number of row buffer hits during writes (Count)
system.mem_ctrl2.dram.readRowHitRate            14.77                       # Row buffer hit rate for reads (Ratio)
system.mem_ctrl2.dram.writeRowHitRate             nan                       # Row buffer hit rate for writes (Ratio)
system.mem_ctrl2.dram.bytesPerActivate::samples         5252                       # Bytes accessed per row activation (Byte)
system.mem_ctrl2.dram.bytesPerActivate::mean    75.089109                       # Bytes accessed per row activation (Byte)
system.mem_ctrl2.dram.bytesPerActivate::gmean    66.423170                       # Bytes accessed per row activation (Byte)
system.mem_ctrl2.dram.bytesPerActivate::stdev    94.788066                       # Bytes accessed per row activation (Byte)
system.mem_ctrl2.dram.bytesPerActivate::0-127         5171     98.46%     98.46% # Bytes accessed per row activation (Byte)
system.mem_ctrl2.dram.bytesPerActivate::128-255            5      0.10%     98.55% # Bytes accessed per row activation (Byte)
system.mem_ctrl2.dram.bytesPerActivate::384-511            6      0.11%     98.67% # Bytes accessed per row activation (Byte)
system.mem_ctrl2.dram.bytesPerActivate::512-639           12      0.23%     98.90% # Bytes accessed per row activation (Byte)
system.mem_ctrl2.dram.bytesPerActivate::640-767           14      0.27%     99.16% # Bytes accessed per row activation (Byte)
system.mem_ctrl2.dram.bytesPerActivate::768-895            2      0.04%     99.20% # Bytes accessed per row activation (Byte)
system.mem_ctrl2.dram.bytesPerActivate::896-1023            4      0.08%     99.28% # Bytes accessed per row activation (Byte)
system.mem_ctrl2.dram.bytesPerActivate::1024-1151           38      0.72%    100.00% # Bytes accessed per row activation (Byte)
system.mem_ctrl2.dram.bytesPerActivate::total         5252                       # Bytes accessed per row activation (Byte)
system.mem_ctrl2.dram.dramBytesRead            394368                       # Total bytes read (Byte)
system.mem_ctrl2.dram.dramBytesWritten              0                       # Total bytes written (Byte)
system.mem_ctrl2.dram.avgRdBW             2676.203337                       # Average DRAM read bandwidth in MiBytes/s ((Byte/Second))
system.mem_ctrl2.dram.avgWrBW                       0                       # Average DRAM write bandwidth in MiBytes/s ((Byte/Second))
system.mem_ctrl2.dram.peakBW                 10996.00                       # Theoretical peak bandwidth in MiByte/s ((Byte/Second))
system.mem_ctrl2.dram.busUtil                   24.34                       # Data bus utilization in percentage (Ratio)
system.mem_ctrl2.dram.busUtilRead               24.34                       # Data bus utilization in percentage for reads (Ratio)
system.mem_ctrl2.dram.busUtilWrite               0.00                       # Data bus utilization in percentage for writes (Ratio)
system.mem_ctrl2.dram.pageHitRate               14.77                       # Row buffer hit rate, read and write combined (Ratio)
system.mem_ctrl2.dram.power_state.pwrStateResidencyTicks::UNDEFINED    147361000                       # Cumulative time (in ticks) in various power states (Tick)
system.mem_ctrl2.dram.rank0.actEnergy               0                       # Energy for activate commands per rank (pJ) (Joule)
system.mem_ctrl2.dram.rank0.preEnergy               0                       # Energy for precharge commands per rank (pJ) (Joule)
system.mem_ctrl2.dram.rank0.readEnergy              0                       # Energy for read commands per rank (pJ) (Joule)
system.mem_ctrl2.dram.rank0.writeEnergy             0                       # Energy for write commands per rank (pJ) (Joule)
system.mem_ctrl2.dram.rank0.refreshEnergy            0                       # Energy for refresh commands per rank (pJ) (Joule)
system.mem_ctrl2.dram.rank0.actBackEnergy            0                       # Energy for active background per rank (pJ) (Joule)
system.mem_ctrl2.dram.rank0.preBackEnergy            0                       # Energy for precharge background per rank (pJ) (Joule)
system.mem_ctrl2.dram.rank0.actPowerDownEnergy            0                       # Energy for active power-down per rank (pJ) (Joule)
system.mem_ctrl2.dram.rank0.prePowerDownEnergy            0                       # Energy for precharge power-down per rank (pJ) (Joule)
system.mem_ctrl2.dram.rank0.selfRefreshEnergy            0                       # Energy for self refresh per rank (pJ) (Joule)
system.mem_ctrl2.dram.rank0.totalEnergy             0                       # Total energy per rank (pJ) (Joule)
system.mem_ctrl2.dram.rank0.averagePower            0                       # Core power per rank (mW) (Watt)
system.mem_ctrl2.dram.rank0.totalIdleTime            0                       # Total Idle time Per DRAM Rank (Tick)
system.mem_ctrl2.dram.rank0.pwrStateTime::IDLE     75220228                       # Time in different power states (Tick)
system.mem_ctrl2.dram.rank0.pwrStateTime::REF      7770000                       # Time in different power states (Tick)
system.mem_ctrl2.dram.rank0.pwrStateTime::SREF            0                       # Time in different power states (Tick)
system.mem_ctrl2.dram.rank0.pwrStateTime::PRE_PDN            0                       # Time in different power states (Tick)
system.mem_ctrl2.dram.rank0.pwrStateTime::ACT     64370772                       # Time in different power states (Tick)
system.mem_ctrl2.dram.rank0.pwrStateTime::ACT_PDN            0                       # Time in different power states (Tick)
system.mem_ctrl2.power_state.pwrStateResidencyTicks::UNDEFINED    147361000                       # Cumulative time (in ticks) in various power states (Tick)
system.membus.transDist::ReadReq                18136                       # Transaction distribution (Count)
system.membus.transDist::ReadResp               18493                       # Transaction distribution (Count)
system.membus.transDist::WriteReq               13048                       # Transaction distribution (Count)
system.membus.transDist::WriteResp              13045                       # Transaction distribution (Count)
system.membus.transDist::WritebackDirty             8                       # Transaction distribution (Count)
system.membus.transDist::CleanEvict                16                       # Transaction distribution (Count)
system.membus.transDist::ReadExReq                 85                       # Transaction distribution (Count)
system.membus.transDist::ReadExResp                85                       # Transaction distribution (Count)
system.membus.transDist::ReadSharedReq            364                       # Transaction distribution (Count)
system.membus.pktCount_system.cpu.icache.mem_side_port::system.l2cache.cpu_side_port          554                       # Packet count per connected requestor and responder (Count)
system.membus.pktCount_system.cpu.dcache.mem_side_port::system.l2cache.cpu_side_port          344                       # Packet count per connected requestor and responder (Count)
system.membus.pktCount_system.trafficgen.port::system.l2cache.cpu_side_port        62358                       # Packet count per connected requestor and responder (Count)
system.membus.pktCount::total                   63256                       # Packet count per connected requestor and responder (Count)
system.membus.pktSize_system.cpu.icache.mem_side_port::system.l2cache.cpu_side_port        17728                       # Cumulative packet size per connected requestor and responder (Byte)
system.membus.pktSize_system.cpu.dcache.mem_side_port::system.l2cache.cpu_side_port        11008                       # Cumulative packet size per connected requestor and responder (Byte)
system.membus.pktSize_system.trafficgen.port::system.l2cache.cpu_side_port      1995328                       # Cumulative packet size per connected requestor and responder (Byte)
system.membus.pktSize::total                  2024064                       # Cumulative packet size per connected requestor and responder (Byte)
system.membus.snoops                               24                       # Total snoops (Count)
system.membus.snoopTraffic                        512                       # Total snoop traffic (Byte)
system.membus.snoopFanout::samples              32182                       # Request fanout histogram (Count)
system.membus.snoopFanout::mean              0.000528                       # Request fanout histogram (Count)
system.membus.snoopFanout::stdev             0.022978                       # Request fanout histogram (Count)
system.membus.snoopFanout::underflows               0      0.00%      0.00% # Request fanout histogram (Count)
system.membus.snoopFanout::0                    32165     99.95%     99.95% # Request fanout histogram (Count)
system.membus.snoopFanout::1                       17      0.05%    100.00% # Request fanout histogram (Count)
system.membus.snoopFanout::2                        0      0.00%    100.00% # Request fanout histogram (Count)
system.membus.snoopFanout::overflows                0      0.00%    100.00% # Request fanout histogram (Count)
system.membus.snoopFanout::min_value                0                       # Request fanout histogram (Count)
system.membus.snoopFanout::max_value                1                       # Request fanout histogram (Count)
system.membus.snoopFanout::total                32182                       # Request fanout histogram (Count)
system.membus.power_state.pwrStateResidencyTicks::UNDEFINED    147361000                       # Cumulative time (in ticks) in various power states (Tick)
system.membus.reqLayer0.occupancy            90052812                       # Layer occupancy (ticks) (Tick)
system.membus.reqLayer0.utilization               0.6                       # Layer utilization (Ratio)
system.membus.respLayer0.occupancy            1537847                       # Layer occupancy (ticks) (Tick)
system.membus.respLayer0.utilization              0.0                       # Layer utilization (Ratio)
system.membus.respLayer1.occupancy             957902                       # Layer occupancy (ticks) (Tick)
system.membus.respLayer1.utilization              0.0                       # Layer utilization (Ratio)
system.membus.respLayer2.occupancy          103690999                       # Layer occupancy (ticks) (Tick)
system.membus.respLayer2.utilization              0.7                       # Layer utilization (Ratio)
system.membus.snoop_filter.totRequests            464                       # Total number of requests made to the snoop filter. (Count)
system.membus.snoop_filter.hitSingleRequests           13                       # Number of requests hitting in the snoop filter with a single holder of the requested data. (Count)
system.membus.snoop_filter.hitMultiRequests            0                       # Number of requests hitting in the snoop filter with multiple (>1) holders of the requested data. (Count)
system.membus.snoop_filter.totSnoops                4                       # Total number of snoops made to the snoop filter. (Count)
system.membus.snoop_filter.hitSingleSnoops            4                       # Number of snoops hitting in the snoop filter with a single holder of the requested data. (Count)
system.membus.snoop_filter.hitMultiSnoops            0                       # Number of snoops hitting in the snoop filter with multiple (>1) holders of the requested data. (Count)
system.trafficgen.numSuppressed                     0                       # Number of suppressed packets to non-memory space (Count)
system.trafficgen.numPackets                    31184                       # Number of packets generated (Count)
system.trafficgen.numRetries                    11454                       # Number of retries (Count)
system.trafficgen.retryTicks                 21640855                       # Time spent waiting due to back-pressure (Tick)
system.trafficgen.bytesRead                   1160256                       # Number of bytes read (Byte)
system.trafficgen.bytesWritten                 834880                       # Number of bytes written (Byte)
system.trafficgen.totalReadLatency         3299441082                       # Total latency of read requests (Tick)
system.trafficgen.totalWriteLatency         929216794                       # Total latency of write requests (Tick)
system.trafficgen.totalReads                    18129                       # Total num of reads (Count)
system.trafficgen.totalWrites                   13045                       # Total num of writes (Count)
system.trafficgen.avgReadLatency         181997.963594                       # Avg latency of read requests ((Tick/Count))
system.trafficgen.avgWriteLatency        71231.643848                       # Avg latency of write requests ((Tick/Count))
system.trafficgen.readBW                 7873562204.382436                       # Read bandwidth ((Byte/Second))
system.trafficgen.writeBW                5665542443.387328                       # Write bandwidth ((Byte/Second))
system.trafficgen.power_state.pwrStateResidencyTicks::UNDEFINED    147361000                       # Cumulative time (in ticks) in various power states (Tick)
system.workload.inst.arm                            0                       # number of arm instructions executed (Count)
system.workload.inst.quiesce                        0                       # number of quiesce instructions executed (Count)

---------- End Simulation Statistics   ----------
