gem5 Simulator System.  https://www.gem5.org
gem5 is copyrighted software; use the --copyright option for details.

gem5 version 24.0.0.0
gem5 compiled May  9 2025 10:04:08
gem5 started May 23 2025 13:30:34
gem5 executing on gem5vm, pid 41442
command line: gem5 -re --outdir=simple_logs --debug-flags=TrafficGen simple_traffic_gen.py

