
---------- Begin Simulation Statistics ----------
simSeconds                                   0.000156                       # Number of seconds simulated (Second)
simTicks                                    156045000                       # Number of ticks simulated (Tick)
finalTick                                   156045000                       # Number of ticks from beginning of simulation (restored from checkpoints and never reset) (Tick)
simFreq                                  1000000000000                       # The number of ticks per simulated second ((Tick/Second))
hostSeconds                                      0.47                       # Real time elapsed on the host (Second)
hostTickRate                                333009667                       # The number of ticks simulated per host second (ticks/s) ((Tick/Second))
hostMemory                                    2332420                       # Number of bytes of host memory used (Byte)
simInsts                                         5166                       # Number of instructions simulated (Count)
simOps                                           6027                       # Number of ops (including micro ops) simulated (Count)
hostInstRate                                    11018                       # Simulator instruction rate (inst/s) ((Count/Second))
hostOpRate                                      12854                       # Simulator op (including micro ops) rate (op/s) ((Count/Second))
system.clk_domain.clock                          1000                       # Clock period in ticks (Tick)
system.clk_domain.voltage_domain.voltage            1                       # Voltage in Volts (Volt)
system.cpu.numCycles                           156045                       # Number of cpu cycles simulated (Cycle)
system.cpu.cpi                              30.136153                       # CPI: cycles per instruction (core level) ((Cycle/Count))
system.cpu.ipc                               0.033183                       # IPC: instructions per cycle (core level) ((Count/Cycle))
system.cpu.numWorkItemsStarted                      0                       # Number of work items this cpu started (Count)
system.cpu.numWorkItemsCompleted                    0                       # Number of work items this cpu completed (Count)
system.cpu.commitStats0.numInsts                 5178                       # Number of instructions committed (thread level) (Count)
system.cpu.commitStats0.numOps                   6041                       # Number of ops (including micro ops) committed (thread level) (Count)
system.cpu.commitStats0.numInstsNotNOP              0                       # Number of instructions committed excluding NOPs or prefetches (Count)
system.cpu.commitStats0.numOpsNotNOP                0                       # Number of Ops (including micro ops) Simulated (Count)
system.cpu.commitStats0.cpi                 30.136153                       # CPI: cycles per instruction (thread level) ((Cycle/Count))
system.cpu.commitStats0.ipc                  0.033183                       # IPC: instructions per cycle (thread level) ((Count/Cycle))
system.cpu.commitStats0.numMemRefs                  0                       # Number of memory references committed (Count)
system.cpu.commitStats0.numFpInsts                  0                       # Number of float instructions (Count)
system.cpu.commitStats0.numIntInsts              5434                       # Number of integer instructions (Count)
system.cpu.commitStats0.numLoadInsts              837                       # Number of load instructions (Count)
system.cpu.commitStats0.numStoreInsts            1093                       # Number of store instructions (Count)
system.cpu.commitStats0.numVecInsts               248                       # Number of vector instructions (Count)
system.cpu.commitStats0.committedInstType::No_OpClass            3      0.05%      0.05% # Class of committed instruction. (Count)
system.cpu.commitStats0.committedInstType::IntAlu         3954     65.45%     65.50% # Class of committed instruction. (Count)
system.cpu.commitStats0.committedInstType::IntMult            4      0.07%     65.57% # Class of committed instruction. (Count)
system.cpu.commitStats0.committedInstType::IntDiv            4      0.07%     65.63% # Class of committed instruction. (Count)
system.cpu.commitStats0.committedInstType::FloatAdd            0      0.00%     65.63% # Class of committed instruction. (Count)
system.cpu.commitStats0.committedInstType::FloatCmp            0      0.00%     65.63% # Class of committed instruction. (Count)
system.cpu.commitStats0.committedInstType::FloatCvt            0      0.00%     65.63% # Class of committed instruction. (Count)
system.cpu.commitStats0.committedInstType::FloatMult            0      0.00%     65.63% # Class of committed instruction. (Count)
system.cpu.commitStats0.committedInstType::FloatMultAcc            0      0.00%     65.63% # Class of committed instruction. (Count)
system.cpu.commitStats0.committedInstType::FloatDiv            0      0.00%     65.63% # Class of committed instruction. (Count)
system.cpu.commitStats0.committedInstType::FloatMisc          100      1.66%     67.29% # Class of committed instruction. (Count)
system.cpu.commitStats0.committedInstType::FloatSqrt            0      0.00%     67.29% # Class of committed instruction. (Count)
system.cpu.commitStats0.committedInstType::SimdAdd           15      0.25%     67.54% # Class of committed instruction. (Count)
system.cpu.commitStats0.committedInstType::SimdAddAcc            0      0.00%     67.54% # Class of committed instruction. (Count)
system.cpu.commitStats0.committedInstType::SimdAlu           10      0.17%     67.70% # Class of committed instruction. (Count)
system.cpu.commitStats0.committedInstType::SimdCmp           12      0.20%     67.90% # Class of committed instruction. (Count)
system.cpu.commitStats0.committedInstType::SimdCvt            0      0.00%     67.90% # Class of committed instruction. (Count)
system.cpu.commitStats0.committedInstType::SimdMisc            9      0.15%     68.05% # Class of committed instruction. (Count)
system.cpu.commitStats0.committedInstType::SimdMult            0      0.00%     68.05% # Class of committed instruction. (Count)
system.cpu.commitStats0.committedInstType::SimdMultAcc            0      0.00%     68.05% # Class of committed instruction. (Count)
system.cpu.commitStats0.committedInstType::SimdMatMultAcc            0      0.00%     68.05% # Class of committed instruction. (Count)
system.cpu.commitStats0.committedInstType::SimdShift            0      0.00%     68.05% # Class of committed instruction. (Count)
system.cpu.commitStats0.committedInstType::SimdShiftAcc            0      0.00%     68.05% # Class of committed instruction. (Count)
system.cpu.commitStats0.committedInstType::SimdDiv            0      0.00%     68.05% # Class of committed instruction. (Count)
system.cpu.commitStats0.committedInstType::SimdSqrt            0      0.00%     68.05% # Class of committed instruction. (Count)
system.cpu.commitStats0.committedInstType::SimdFloatAdd            0      0.00%     68.05% # Class of committed instruction. (Count)
system.cpu.commitStats0.committedInstType::SimdFloatAlu            0      0.00%     68.05% # Class of committed instruction. (Count)
system.cpu.commitStats0.committedInstType::SimdFloatCmp            0      0.00%     68.05% # Class of committed instruction. (Count)
system.cpu.commitStats0.committedInstType::SimdFloatCvt            0      0.00%     68.05% # Class of committed instruction. (Count)
system.cpu.commitStats0.committedInstType::SimdFloatDiv            0      0.00%     68.05% # Class of committed instruction. (Count)
system.cpu.commitStats0.committedInstType::SimdFloatMisc            0      0.00%     68.05% # Class of committed instruction. (Count)
system.cpu.commitStats0.committedInstType::SimdFloatMult            0      0.00%     68.05% # Class of committed instruction. (Count)
system.cpu.commitStats0.committedInstType::SimdFloatMultAcc            0      0.00%     68.05% # Class of committed instruction. (Count)
system.cpu.commitStats0.committedInstType::SimdFloatMatMultAcc            0      0.00%     68.05% # Class of committed instruction. (Count)
system.cpu.commitStats0.committedInstType::SimdFloatSqrt            0      0.00%     68.05% # Class of committed instruction. (Count)
system.cpu.commitStats0.committedInstType::SimdReduceAdd            0      0.00%     68.05% # Class of committed instruction. (Count)
system.cpu.commitStats0.committedInstType::SimdReduceAlu            0      0.00%     68.05% # Class of committed instruction. (Count)
system.cpu.commitStats0.committedInstType::SimdReduceCmp            0      0.00%     68.05% # Class of committed instruction. (Count)
system.cpu.commitStats0.committedInstType::SimdFloatReduceAdd            0      0.00%     68.05% # Class of committed instruction. (Count)
system.cpu.commitStats0.committedInstType::SimdFloatReduceCmp            0      0.00%     68.05% # Class of committed instruction. (Count)
system.cpu.commitStats0.committedInstType::SimdAes            0      0.00%     68.05% # Class of committed instruction. (Count)
system.cpu.commitStats0.committedInstType::SimdAesMix            0      0.00%     68.05% # Class of committed instruction. (Count)
system.cpu.commitStats0.committedInstType::SimdSha1Hash            0      0.00%     68.05% # Class of committed instruction. (Count)
system.cpu.commitStats0.committedInstType::SimdSha1Hash2            0      0.00%     68.05% # Class of committed instruction. (Count)
system.cpu.commitStats0.committedInstType::SimdSha256Hash            0      0.00%     68.05% # Class of committed instruction. (Count)
system.cpu.commitStats0.committedInstType::SimdSha256Hash2            0      0.00%     68.05% # Class of committed instruction. (Count)
system.cpu.commitStats0.committedInstType::SimdShaSigma2            0      0.00%     68.05% # Class of committed instruction. (Count)
system.cpu.commitStats0.committedInstType::SimdShaSigma3            0      0.00%     68.05% # Class of committed instruction. (Count)
system.cpu.commitStats0.committedInstType::SimdPredAlu            0      0.00%     68.05% # Class of committed instruction. (Count)
system.cpu.commitStats0.committedInstType::Matrix            0      0.00%     68.05% # Class of committed instruction. (Count)
system.cpu.commitStats0.committedInstType::MatrixMov            0      0.00%     68.05% # Class of committed instruction. (Count)
system.cpu.commitStats0.committedInstType::MatrixOP            0      0.00%     68.05% # Class of committed instruction. (Count)
system.cpu.commitStats0.committedInstType::MemRead          837     13.86%     81.91% # Class of committed instruction. (Count)
system.cpu.commitStats0.committedInstType::MemWrite         1093     18.09%    100.00% # Class of committed instruction. (Count)
system.cpu.commitStats0.committedInstType::FloatMemRead            0      0.00%    100.00% # Class of committed instruction. (Count)
system.cpu.commitStats0.committedInstType::FloatMemWrite            0      0.00%    100.00% # Class of committed instruction. (Count)
system.cpu.commitStats0.committedInstType::IprAccess            0      0.00%    100.00% # Class of committed instruction. (Count)
system.cpu.commitStats0.committedInstType::InstPrefetch            0      0.00%    100.00% # Class of committed instruction. (Count)
system.cpu.commitStats0.committedInstType::SimdUnitStrideLoad            0      0.00%    100.00% # Class of committed instruction. (Count)
system.cpu.commitStats0.committedInstType::SimdUnitStrideStore            0      0.00%    100.00% # Class of committed instruction. (Count)
system.cpu.commitStats0.committedInstType::SimdUnitStrideMaskLoad            0      0.00%    100.00% # Class of committed instruction. (Count)
system.cpu.commitStats0.committedInstType::SimdUnitStrideMaskStore            0      0.00%    100.00% # Class of committed instruction. (Count)
system.cpu.commitStats0.committedInstType::SimdStridedLoad            0      0.00%    100.00% # Class of committed instruction. (Count)
system.cpu.commitStats0.committedInstType::SimdStridedStore            0      0.00%    100.00% # Class of committed instruction. (Count)
system.cpu.commitStats0.committedInstType::SimdIndexedLoad            0      0.00%    100.00% # Class of committed instruction. (Count)
system.cpu.commitStats0.committedInstType::SimdIndexedStore            0      0.00%    100.00% # Class of committed instruction. (Count)
system.cpu.commitStats0.committedInstType::SimdWholeRegisterLoad            0      0.00%    100.00% # Class of committed instruction. (Count)
system.cpu.commitStats0.committedInstType::SimdWholeRegisterStore            0      0.00%    100.00% # Class of committed instruction. (Count)
system.cpu.commitStats0.committedInstType::SimdUnitStrideFaultOnlyFirstLoad            0      0.00%    100.00% # Class of committed instruction. (Count)
system.cpu.commitStats0.committedInstType::SimdUnitStrideSegmentedLoad            0      0.00%    100.00% # Class of committed instruction. (Count)
system.cpu.commitStats0.committedInstType::SimdUnitStrideSegmentedStore            0      0.00%    100.00% # Class of committed instruction. (Count)
system.cpu.commitStats0.committedInstType::SimdExt            0      0.00%    100.00% # Class of committed instruction. (Count)
system.cpu.commitStats0.committedInstType::SimdFloatExt            0      0.00%    100.00% # Class of committed instruction. (Count)
system.cpu.commitStats0.committedInstType::SimdConfig            0      0.00%    100.00% # Class of committed instruction. (Count)
system.cpu.commitStats0.committedInstType::total         6041                       # Class of committed instruction. (Count)
system.cpu.commitStats0.committedControl::IsControl         1082                       # Class of control type instructions committed (Count)
system.cpu.commitStats0.committedControl::IsDirectControl          955                       # Class of control type instructions committed (Count)
system.cpu.commitStats0.committedControl::IsIndirectControl          127                       # Class of control type instructions committed (Count)
system.cpu.commitStats0.committedControl::IsCondControl          800                       # Class of control type instructions committed (Count)
system.cpu.commitStats0.committedControl::IsUncondControl          282                       # Class of control type instructions committed (Count)
system.cpu.commitStats0.committedControl::IsCall           95                       # Class of control type instructions committed (Count)
system.cpu.commitStats0.committedControl::IsReturn           91                       # Class of control type instructions committed (Count)
system.cpu.dcache.demandHits::cpu.data           1721                       # number of demand (read+write) hits (Count)
system.cpu.dcache.demandHits::total              1721                       # number of demand (read+write) hits (Count)
system.cpu.dcache.overallHits::cpu.data          1723                       # number of overall hits (Count)
system.cpu.dcache.overallHits::total             1723                       # number of overall hits (Count)
system.cpu.dcache.demandMisses::cpu.data          170                       # number of demand (read+write) misses (Count)
system.cpu.dcache.demandMisses::total             170                       # number of demand (read+write) misses (Count)
system.cpu.dcache.overallMisses::cpu.data          172                       # number of overall misses (Count)
system.cpu.dcache.overallMisses::total            172                       # number of overall misses (Count)
system.cpu.dcache.demandMissLatency::cpu.data     35273000                       # number of demand (read+write) miss ticks (Tick)
system.cpu.dcache.demandMissLatency::total     35273000                       # number of demand (read+write) miss ticks (Tick)
system.cpu.dcache.overallMissLatency::cpu.data     35273000                       # number of overall miss ticks (Tick)
system.cpu.dcache.overallMissLatency::total     35273000                       # number of overall miss ticks (Tick)
system.cpu.dcache.demandAccesses::cpu.data         1891                       # number of demand (read+write) accesses (Count)
system.cpu.dcache.demandAccesses::total          1891                       # number of demand (read+write) accesses (Count)
system.cpu.dcache.overallAccesses::cpu.data         1895                       # number of overall (read+write) accesses (Count)
system.cpu.dcache.overallAccesses::total         1895                       # number of overall (read+write) accesses (Count)
system.cpu.dcache.demandMissRate::cpu.data     0.089900                       # miss rate for demand accesses (Ratio)
system.cpu.dcache.demandMissRate::total      0.089900                       # miss rate for demand accesses (Ratio)
system.cpu.dcache.overallMissRate::cpu.data     0.090765                       # miss rate for overall accesses (Ratio)
system.cpu.dcache.overallMissRate::total     0.090765                       # miss rate for overall accesses (Ratio)
system.cpu.dcache.demandAvgMissLatency::cpu.data 207488.235294                       # average overall miss latency in ticks ((Tick/Count))
system.cpu.dcache.demandAvgMissLatency::total 207488.235294                       # average overall miss latency in ticks ((Tick/Count))
system.cpu.dcache.overallAvgMissLatency::cpu.data 205075.581395                       # average overall miss latency ((Tick/Count))
system.cpu.dcache.overallAvgMissLatency::total 205075.581395                       # average overall miss latency ((Tick/Count))
system.cpu.dcache.blockedCycles::no_mshrs            0                       # number of cycles access was blocked (Cycle)
system.cpu.dcache.blockedCycles::no_targets            0                       # number of cycles access was blocked (Cycle)
system.cpu.dcache.blockedCauses::no_mshrs            0                       # number of times access was blocked (Count)
system.cpu.dcache.blockedCauses::no_targets            0                       # number of times access was blocked (Count)
system.cpu.dcache.avgBlocked::no_mshrs            nan                       # average number of cycles each access was blocked ((Cycle/Count))
system.cpu.dcache.avgBlocked::no_targets          nan                       # average number of cycles each access was blocked ((Cycle/Count))
system.cpu.dcache.demandMshrHits::cpu.data            1                       # number of demand (read+write) MSHR hits (Count)
system.cpu.dcache.demandMshrHits::total             1                       # number of demand (read+write) MSHR hits (Count)
system.cpu.dcache.overallMshrHits::cpu.data            1                       # number of overall MSHR hits (Count)
system.cpu.dcache.overallMshrHits::total            1                       # number of overall MSHR hits (Count)
system.cpu.dcache.demandMshrMisses::cpu.data          169                       # number of demand (read+write) MSHR misses (Count)
system.cpu.dcache.demandMshrMisses::total          169                       # number of demand (read+write) MSHR misses (Count)
system.cpu.dcache.overallMshrMisses::cpu.data          171                       # number of overall MSHR misses (Count)
system.cpu.dcache.overallMshrMisses::total          171                       # number of overall MSHR misses (Count)
system.cpu.dcache.demandMshrMissLatency::cpu.data     33535000                       # number of demand (read+write) MSHR miss ticks (Tick)
system.cpu.dcache.demandMshrMissLatency::total     33535000                       # number of demand (read+write) MSHR miss ticks (Tick)
system.cpu.dcache.overallMshrMissLatency::cpu.data     33784000                       # number of overall MSHR miss ticks (Tick)
system.cpu.dcache.overallMshrMissLatency::total     33784000                       # number of overall MSHR miss ticks (Tick)
system.cpu.dcache.demandMshrMissRate::cpu.data     0.089371                       # mshr miss ratio for demand accesses (Ratio)
system.cpu.dcache.demandMshrMissRate::total     0.089371                       # mshr miss ratio for demand accesses (Ratio)
system.cpu.dcache.overallMshrMissRate::cpu.data     0.090237                       # mshr miss ratio for overall accesses (Ratio)
system.cpu.dcache.overallMshrMissRate::total     0.090237                       # mshr miss ratio for overall accesses (Ratio)
system.cpu.dcache.demandAvgMshrMissLatency::cpu.data 198431.952663                       # average overall mshr miss latency ((Tick/Count))
system.cpu.dcache.demandAvgMshrMissLatency::total 198431.952663                       # average overall mshr miss latency ((Tick/Count))
system.cpu.dcache.overallAvgMshrMissLatency::cpu.data 197567.251462                       # average overall mshr miss latency ((Tick/Count))
system.cpu.dcache.overallAvgMshrMissLatency::total 197567.251462                       # average overall mshr miss latency ((Tick/Count))
system.cpu.dcache.replacements                      0                       # number of replacements (Count)
system.cpu.dcache.LoadLockedReq.hits::cpu.data           15                       # number of LoadLockedReq hits (Count)
system.cpu.dcache.LoadLockedReq.hits::total           15                       # number of LoadLockedReq hits (Count)
system.cpu.dcache.LoadLockedReq.misses::cpu.data            1                       # number of LoadLockedReq misses (Count)
system.cpu.dcache.LoadLockedReq.misses::total            1                       # number of LoadLockedReq misses (Count)
system.cpu.dcache.LoadLockedReq.missLatency::cpu.data       258000                       # number of LoadLockedReq miss ticks (Tick)
system.cpu.dcache.LoadLockedReq.missLatency::total       258000                       # number of LoadLockedReq miss ticks (Tick)
system.cpu.dcache.LoadLockedReq.accesses::cpu.data           16                       # number of LoadLockedReq accesses(hits+misses) (Count)
system.cpu.dcache.LoadLockedReq.accesses::total           16                       # number of LoadLockedReq accesses(hits+misses) (Count)
system.cpu.dcache.LoadLockedReq.missRate::cpu.data     0.062500                       # miss rate for LoadLockedReq accesses (Ratio)
system.cpu.dcache.LoadLockedReq.missRate::total     0.062500                       # miss rate for LoadLockedReq accesses (Ratio)
system.cpu.dcache.LoadLockedReq.avgMissLatency::cpu.data       258000                       # average LoadLockedReq miss latency ((Tick/Count))
system.cpu.dcache.LoadLockedReq.avgMissLatency::total       258000                       # average LoadLockedReq miss latency ((Tick/Count))
system.cpu.dcache.LoadLockedReq.mshrMisses::cpu.data            1                       # number of LoadLockedReq MSHR misses (Count)
system.cpu.dcache.LoadLockedReq.mshrMisses::total            1                       # number of LoadLockedReq MSHR misses (Count)
system.cpu.dcache.LoadLockedReq.mshrMissLatency::cpu.data       248000                       # number of LoadLockedReq MSHR miss ticks (Tick)
system.cpu.dcache.LoadLockedReq.mshrMissLatency::total       248000                       # number of LoadLockedReq MSHR miss ticks (Tick)
system.cpu.dcache.LoadLockedReq.mshrMissRate::cpu.data     0.062500                       # mshr miss rate for LoadLockedReq accesses (Ratio)
system.cpu.dcache.LoadLockedReq.mshrMissRate::total     0.062500                       # mshr miss rate for LoadLockedReq accesses (Ratio)
system.cpu.dcache.LoadLockedReq.avgMshrMissLatency::cpu.data       248000                       # average LoadLockedReq mshr miss latency ((Tick/Count))
system.cpu.dcache.LoadLockedReq.avgMshrMissLatency::total       248000                       # average LoadLockedReq mshr miss latency ((Tick/Count))
system.cpu.dcache.ReadReq.hits::cpu.data          732                       # number of ReadReq hits (Count)
system.cpu.dcache.ReadReq.hits::total             732                       # number of ReadReq hits (Count)
system.cpu.dcache.ReadReq.misses::cpu.data           85                       # number of ReadReq misses (Count)
system.cpu.dcache.ReadReq.misses::total            85                       # number of ReadReq misses (Count)
system.cpu.dcache.ReadReq.missLatency::cpu.data     17797000                       # number of ReadReq miss ticks (Tick)
system.cpu.dcache.ReadReq.missLatency::total     17797000                       # number of ReadReq miss ticks (Tick)
system.cpu.dcache.ReadReq.accesses::cpu.data          817                       # number of ReadReq accesses(hits+misses) (Count)
system.cpu.dcache.ReadReq.accesses::total          817                       # number of ReadReq accesses(hits+misses) (Count)
system.cpu.dcache.ReadReq.missRate::cpu.data     0.104039                       # miss rate for ReadReq accesses (Ratio)
system.cpu.dcache.ReadReq.missRate::total     0.104039                       # miss rate for ReadReq accesses (Ratio)
system.cpu.dcache.ReadReq.avgMissLatency::cpu.data 209376.470588                       # average ReadReq miss latency ((Tick/Count))
system.cpu.dcache.ReadReq.avgMissLatency::total 209376.470588                       # average ReadReq miss latency ((Tick/Count))
system.cpu.dcache.ReadReq.mshrHits::cpu.data            1                       # number of ReadReq MSHR hits (Count)
system.cpu.dcache.ReadReq.mshrHits::total            1                       # number of ReadReq MSHR hits (Count)
system.cpu.dcache.ReadReq.mshrMisses::cpu.data           84                       # number of ReadReq MSHR misses (Count)
system.cpu.dcache.ReadReq.mshrMisses::total           84                       # number of ReadReq MSHR misses (Count)
system.cpu.dcache.ReadReq.mshrMissLatency::cpu.data     16909000                       # number of ReadReq MSHR miss ticks (Tick)
system.cpu.dcache.ReadReq.mshrMissLatency::total     16909000                       # number of ReadReq MSHR miss ticks (Tick)
system.cpu.dcache.ReadReq.mshrMissRate::cpu.data     0.102815                       # mshr miss rate for ReadReq accesses (Ratio)
system.cpu.dcache.ReadReq.mshrMissRate::total     0.102815                       # mshr miss rate for ReadReq accesses (Ratio)
system.cpu.dcache.ReadReq.avgMshrMissLatency::cpu.data 201297.619048                       # average ReadReq mshr miss latency ((Tick/Count))
system.cpu.dcache.ReadReq.avgMshrMissLatency::total 201297.619048                       # average ReadReq mshr miss latency ((Tick/Count))
system.cpu.dcache.SoftPFReq.hits::cpu.data            2                       # number of SoftPFReq hits (Count)
system.cpu.dcache.SoftPFReq.hits::total             2                       # number of SoftPFReq hits (Count)
system.cpu.dcache.SoftPFReq.misses::cpu.data            2                       # number of SoftPFReq misses (Count)
system.cpu.dcache.SoftPFReq.misses::total            2                       # number of SoftPFReq misses (Count)
system.cpu.dcache.SoftPFReq.accesses::cpu.data            4                       # number of SoftPFReq accesses(hits+misses) (Count)
system.cpu.dcache.SoftPFReq.accesses::total            4                       # number of SoftPFReq accesses(hits+misses) (Count)
system.cpu.dcache.SoftPFReq.missRate::cpu.data     0.500000                       # miss rate for SoftPFReq accesses (Ratio)
system.cpu.dcache.SoftPFReq.missRate::total     0.500000                       # miss rate for SoftPFReq accesses (Ratio)
system.cpu.dcache.SoftPFReq.mshrMisses::cpu.data            2                       # number of SoftPFReq MSHR misses (Count)
system.cpu.dcache.SoftPFReq.mshrMisses::total            2                       # number of SoftPFReq MSHR misses (Count)
system.cpu.dcache.SoftPFReq.mshrMissLatency::cpu.data       249000                       # number of SoftPFReq MSHR miss ticks (Tick)
system.cpu.dcache.SoftPFReq.mshrMissLatency::total       249000                       # number of SoftPFReq MSHR miss ticks (Tick)
system.cpu.dcache.SoftPFReq.mshrMissRate::cpu.data     0.500000                       # mshr miss rate for SoftPFReq accesses (Ratio)
system.cpu.dcache.SoftPFReq.mshrMissRate::total     0.500000                       # mshr miss rate for SoftPFReq accesses (Ratio)
system.cpu.dcache.SoftPFReq.avgMshrMissLatency::cpu.data       124500                       # average SoftPFReq mshr miss latency ((Tick/Count))
system.cpu.dcache.SoftPFReq.avgMshrMissLatency::total       124500                       # average SoftPFReq mshr miss latency ((Tick/Count))
system.cpu.dcache.StoreCondReq.hits::cpu.data           16                       # number of StoreCondReq hits (Count)
system.cpu.dcache.StoreCondReq.hits::total           16                       # number of StoreCondReq hits (Count)
system.cpu.dcache.StoreCondReq.accesses::cpu.data           16                       # number of StoreCondReq accesses(hits+misses) (Count)
system.cpu.dcache.StoreCondReq.accesses::total           16                       # number of StoreCondReq accesses(hits+misses) (Count)
system.cpu.dcache.WriteReq.hits::cpu.data          989                       # number of WriteReq hits (Count)
system.cpu.dcache.WriteReq.hits::total            989                       # number of WriteReq hits (Count)
system.cpu.dcache.WriteReq.misses::cpu.data           85                       # number of WriteReq misses (Count)
system.cpu.dcache.WriteReq.misses::total           85                       # number of WriteReq misses (Count)
system.cpu.dcache.WriteReq.missLatency::cpu.data     17476000                       # number of WriteReq miss ticks (Tick)
system.cpu.dcache.WriteReq.missLatency::total     17476000                       # number of WriteReq miss ticks (Tick)
system.cpu.dcache.WriteReq.accesses::cpu.data         1074                       # number of WriteReq accesses(hits+misses) (Count)
system.cpu.dcache.WriteReq.accesses::total         1074                       # number of WriteReq accesses(hits+misses) (Count)
system.cpu.dcache.WriteReq.missRate::cpu.data     0.079143                       # miss rate for WriteReq accesses (Ratio)
system.cpu.dcache.WriteReq.missRate::total     0.079143                       # miss rate for WriteReq accesses (Ratio)
system.cpu.dcache.WriteReq.avgMissLatency::cpu.data       205600                       # average WriteReq miss latency ((Tick/Count))
system.cpu.dcache.WriteReq.avgMissLatency::total       205600                       # average WriteReq miss latency ((Tick/Count))
system.cpu.dcache.WriteReq.mshrMisses::cpu.data           85                       # number of WriteReq MSHR misses (Count)
system.cpu.dcache.WriteReq.mshrMisses::total           85                       # number of WriteReq MSHR misses (Count)
system.cpu.dcache.WriteReq.mshrMissLatency::cpu.data     16626000                       # number of WriteReq MSHR miss ticks (Tick)
system.cpu.dcache.WriteReq.mshrMissLatency::total     16626000                       # number of WriteReq MSHR miss ticks (Tick)
system.cpu.dcache.WriteReq.mshrMissRate::cpu.data     0.079143                       # mshr miss rate for WriteReq accesses (Ratio)
system.cpu.dcache.WriteReq.mshrMissRate::total     0.079143                       # mshr miss rate for WriteReq accesses (Ratio)
system.cpu.dcache.WriteReq.avgMshrMissLatency::cpu.data       195600                       # average WriteReq mshr miss latency ((Tick/Count))
system.cpu.dcache.WriteReq.avgMshrMissLatency::total       195600                       # average WriteReq mshr miss latency ((Tick/Count))
system.cpu.dcache.power_state.pwrStateResidencyTicks::UNDEFINED    156045000                       # Cumulative time (in ticks) in various power states (Tick)
system.cpu.dcache.tags.tagsInUse           105.634702                       # Average ticks per tags in use ((Tick/Count))
system.cpu.dcache.tags.totalRefs                    0                       # Total number of references to valid blocks. (Count)
system.cpu.dcache.tags.sampledRefs                  0                       # Sample count of references to valid blocks. (Count)
system.cpu.dcache.tags.avgRefs                    nan                       # Average number of references to valid blocks. ((Count/Count))
system.cpu.dcache.tags.warmupTick              285000                       # The tick when the warmup percentage was hit. (Tick)
system.cpu.dcache.tags.occupancies::cpu.data   105.634702                       # Average occupied blocks per tick, per requestor ((Count/Tick))
system.cpu.dcache.tags.avgOccs::cpu.data     0.103159                       # Average percentage of cache occupancy ((Ratio/Tick))
system.cpu.dcache.tags.avgOccs::total        0.103159                       # Average percentage of cache occupancy ((Ratio/Tick))
system.cpu.dcache.tags.occupanciesTaskId::1024          172                       # Occupied blocks per task id (Count)
system.cpu.dcache.tags.ageTaskId_1024::0            6                       # Occupied blocks per task id, per block age (Count)
system.cpu.dcache.tags.ageTaskId_1024::1           71                       # Occupied blocks per task id, per block age (Count)
system.cpu.dcache.tags.ageTaskId_1024::2           95                       # Occupied blocks per task id, per block age (Count)
system.cpu.dcache.tags.ratioOccsTaskId::1024     0.167969                       # Ratio of occupied blocks and all blocks, per task id (Ratio)
system.cpu.dcache.tags.tagAccesses              15588                       # Number of tag accesses (Count)
system.cpu.dcache.tags.dataAccesses             15588                       # Number of data accesses (Count)
system.cpu.dcache.tags.power_state.pwrStateResidencyTicks::UNDEFINED    156045000                       # Cumulative time (in ticks) in various power states (Tick)
system.cpu.exec_context.thread_0.numMatAluAccesses            0                       # Number of matrix alu accesses (Count)
system.cpu.exec_context.thread_0.numCallsReturns          186                       # Number of times a function call or return occured (Count)
system.cpu.exec_context.thread_0.numMatInsts            0                       # Number of matrix instructions (Count)
system.cpu.exec_context.thread_0.numIdleCycles     0.001000                       # Number of idle cycles (Cycle)
system.cpu.exec_context.thread_0.numBusyCycles 156044.999000                       # Number of busy cycles (Cycle)
system.cpu.exec_context.thread_0.notIdleFraction     1.000000                       # Percentage of non-idle cycles (Ratio)
system.cpu.exec_context.thread_0.idleFraction     0.000000                       # Percentage of idle cycles (Ratio)
system.cpu.executeStats0.numInsts                   0                       # Number of executed instructions (Count)
system.cpu.executeStats0.numNop                     0                       # Number of nop insts executed (Count)
system.cpu.executeStats0.numBranches                0                       # Number of branches executed (Count)
system.cpu.executeStats0.numLoadInsts               0                       # Number of load instructions executed (Count)
system.cpu.executeStats0.numStoreInsts           1930                       # Number of stores executed (Count)
system.cpu.executeStats0.instRate                   0                       # Inst execution rate ((Count/Cycle))
system.cpu.executeStats0.numFpRegWrites             0                       # Number of times the floating registers were written (Count)
system.cpu.executeStats0.numIntAluAccesses         5434                       # Number of integer alu accesses (Count)
system.cpu.executeStats0.numIntRegReads          6491                       # Number of times the integer registers were read (Count)
system.cpu.executeStats0.numIntRegWrites         3555                       # Number of times the integer registers were written (Count)
system.cpu.executeStats0.numMemRefs              1930                       # Number of memory refs (Count)
system.cpu.executeStats0.numMiscRegReads          519                       # Number of times the Misc registers were read (Count)
system.cpu.executeStats0.numMiscRegWrites           33                       # Number of times the Misc registers were written (Count)
system.cpu.executeStats0.numVecAluAccesses          248                       # Number of vector alu accesses (Count)
system.cpu.executeStats0.numVecRegReads           197                       # Number of times the vector registers were read (Count)
system.cpu.executeStats0.numVecRegWrites          157                       # Number of times the vector registers were written (Count)
system.cpu.executeStats0.numDiscardedOps            0                       # Number of ops (including micro ops) which were discarded before commit (Count)
system.cpu.fetchStats0.numInsts                  5178                       # Number of instructions fetched (thread level) (Count)
system.cpu.fetchStats0.numOps                    6041                       # Number of ops (including micro ops) fetched (thread level) (Count)
system.cpu.fetchStats0.fetchRate             0.033183                       # Number of inst fetches per cycle ((Count/Cycle))
system.cpu.fetchStats0.numBranches               1082                       # Number of branches fetched (Count)
system.cpu.fetchStats0.branchRate            0.006934                       # Number of branch fetches per cycle (Ratio)
system.cpu.fetchStats0.numFetchSuspends             0                       # Number of times Execute suspended instruction fetching (Count)
system.cpu.icache.demandHits::cpu.inst           4903                       # number of demand (read+write) hits (Count)
system.cpu.icache.demandHits::total              4903                       # number of demand (read+write) hits (Count)
system.cpu.icache.overallHits::cpu.inst          4903                       # number of overall hits (Count)
system.cpu.icache.overallHits::total             4903                       # number of overall hits (Count)
system.cpu.icache.demandMisses::cpu.inst          277                       # number of demand (read+write) misses (Count)
system.cpu.icache.demandMisses::total             277                       # number of demand (read+write) misses (Count)
system.cpu.icache.overallMisses::cpu.inst          277                       # number of overall misses (Count)
system.cpu.icache.overallMisses::total            277                       # number of overall misses (Count)
system.cpu.icache.demandMissLatency::cpu.inst     53933000                       # number of demand (read+write) miss ticks (Tick)
system.cpu.icache.demandMissLatency::total     53933000                       # number of demand (read+write) miss ticks (Tick)
system.cpu.icache.overallMissLatency::cpu.inst     53933000                       # number of overall miss ticks (Tick)
system.cpu.icache.overallMissLatency::total     53933000                       # number of overall miss ticks (Tick)
system.cpu.icache.demandAccesses::cpu.inst         5180                       # number of demand (read+write) accesses (Count)
system.cpu.icache.demandAccesses::total          5180                       # number of demand (read+write) accesses (Count)
system.cpu.icache.overallAccesses::cpu.inst         5180                       # number of overall (read+write) accesses (Count)
system.cpu.icache.overallAccesses::total         5180                       # number of overall (read+write) accesses (Count)
system.cpu.icache.demandMissRate::cpu.inst     0.053475                       # miss rate for demand accesses (Ratio)
system.cpu.icache.demandMissRate::total      0.053475                       # miss rate for demand accesses (Ratio)
system.cpu.icache.overallMissRate::cpu.inst     0.053475                       # miss rate for overall accesses (Ratio)
system.cpu.icache.overallMissRate::total     0.053475                       # miss rate for overall accesses (Ratio)
system.cpu.icache.demandAvgMissLatency::cpu.inst 194703.971119                       # average overall miss latency in ticks ((Tick/Count))
system.cpu.icache.demandAvgMissLatency::total 194703.971119                       # average overall miss latency in ticks ((Tick/Count))
system.cpu.icache.overallAvgMissLatency::cpu.inst 194703.971119                       # average overall miss latency ((Tick/Count))
system.cpu.icache.overallAvgMissLatency::total 194703.971119                       # average overall miss latency ((Tick/Count))
system.cpu.icache.blockedCycles::no_mshrs            0                       # number of cycles access was blocked (Cycle)
system.cpu.icache.blockedCycles::no_targets            0                       # number of cycles access was blocked (Cycle)
system.cpu.icache.blockedCauses::no_mshrs            0                       # number of times access was blocked (Count)
system.cpu.icache.blockedCauses::no_targets            0                       # number of times access was blocked (Count)
system.cpu.icache.avgBlocked::no_mshrs            nan                       # average number of cycles each access was blocked ((Cycle/Count))
system.cpu.icache.avgBlocked::no_targets          nan                       # average number of cycles each access was blocked ((Cycle/Count))
system.cpu.icache.demandMshrMisses::cpu.inst          277                       # number of demand (read+write) MSHR misses (Count)
system.cpu.icache.demandMshrMisses::total          277                       # number of demand (read+write) MSHR misses (Count)
system.cpu.icache.overallMshrMisses::cpu.inst          277                       # number of overall MSHR misses (Count)
system.cpu.icache.overallMshrMisses::total          277                       # number of overall MSHR misses (Count)
system.cpu.icache.demandMshrMissLatency::cpu.inst     51163000                       # number of demand (read+write) MSHR miss ticks (Tick)
system.cpu.icache.demandMshrMissLatency::total     51163000                       # number of demand (read+write) MSHR miss ticks (Tick)
system.cpu.icache.overallMshrMissLatency::cpu.inst     51163000                       # number of overall MSHR miss ticks (Tick)
system.cpu.icache.overallMshrMissLatency::total     51163000                       # number of overall MSHR miss ticks (Tick)
system.cpu.icache.demandMshrMissRate::cpu.inst     0.053475                       # mshr miss ratio for demand accesses (Ratio)
system.cpu.icache.demandMshrMissRate::total     0.053475                       # mshr miss ratio for demand accesses (Ratio)
system.cpu.icache.overallMshrMissRate::cpu.inst     0.053475                       # mshr miss ratio for overall accesses (Ratio)
system.cpu.icache.overallMshrMissRate::total     0.053475                       # mshr miss ratio for overall accesses (Ratio)
system.cpu.icache.demandAvgMshrMissLatency::cpu.inst 184703.971119                       # average overall mshr miss latency ((Tick/Count))
system.cpu.icache.demandAvgMshrMissLatency::total 184703.971119                       # average overall mshr miss latency ((Tick/Count))
system.cpu.icache.overallAvgMshrMissLatency::cpu.inst 184703.971119                       # average overall mshr miss latency ((Tick/Count))
system.cpu.icache.overallAvgMshrMissLatency::total 184703.971119                       # average overall mshr miss latency ((Tick/Count))
system.cpu.icache.replacements                      0                       # number of replacements (Count)
system.cpu.icache.ReadReq.hits::cpu.inst         4903                       # number of ReadReq hits (Count)
system.cpu.icache.ReadReq.hits::total            4903                       # number of ReadReq hits (Count)
system.cpu.icache.ReadReq.misses::cpu.inst          277                       # number of ReadReq misses (Count)
system.cpu.icache.ReadReq.misses::total           277                       # number of ReadReq misses (Count)
system.cpu.icache.ReadReq.missLatency::cpu.inst     53933000                       # number of ReadReq miss ticks (Tick)
system.cpu.icache.ReadReq.missLatency::total     53933000                       # number of ReadReq miss ticks (Tick)
system.cpu.icache.ReadReq.accesses::cpu.inst         5180                       # number of ReadReq accesses(hits+misses) (Count)
system.cpu.icache.ReadReq.accesses::total         5180                       # number of ReadReq accesses(hits+misses) (Count)
system.cpu.icache.ReadReq.missRate::cpu.inst     0.053475                       # miss rate for ReadReq accesses (Ratio)
system.cpu.icache.ReadReq.missRate::total     0.053475                       # miss rate for ReadReq accesses (Ratio)
system.cpu.icache.ReadReq.avgMissLatency::cpu.inst 194703.971119                       # average ReadReq miss latency ((Tick/Count))
system.cpu.icache.ReadReq.avgMissLatency::total 194703.971119                       # average ReadReq miss latency ((Tick/Count))
system.cpu.icache.ReadReq.mshrMisses::cpu.inst          277                       # number of ReadReq MSHR misses (Count)
system.cpu.icache.ReadReq.mshrMisses::total          277                       # number of ReadReq MSHR misses (Count)
system.cpu.icache.ReadReq.mshrMissLatency::cpu.inst     51163000                       # number of ReadReq MSHR miss ticks (Tick)
system.cpu.icache.ReadReq.mshrMissLatency::total     51163000                       # number of ReadReq MSHR miss ticks (Tick)
system.cpu.icache.ReadReq.mshrMissRate::cpu.inst     0.053475                       # mshr miss rate for ReadReq accesses (Ratio)
system.cpu.icache.ReadReq.mshrMissRate::total     0.053475                       # mshr miss rate for ReadReq accesses (Ratio)
system.cpu.icache.ReadReq.avgMshrMissLatency::cpu.inst 184703.971119                       # average ReadReq mshr miss latency ((Tick/Count))
system.cpu.icache.ReadReq.avgMshrMissLatency::total 184703.971119                       # average ReadReq mshr miss latency ((Tick/Count))
system.cpu.icache.power_state.pwrStateResidencyTicks::UNDEFINED    156045000                       # Cumulative time (in ticks) in various power states (Tick)
system.cpu.icache.tags.tagsInUse           127.552874                       # Average ticks per tags in use ((Tick/Count))
system.cpu.icache.tags.totalRefs                    0                       # Total number of references to valid blocks. (Count)
system.cpu.icache.tags.sampledRefs                  0                       # Sample count of references to valid blocks. (Count)
system.cpu.icache.tags.avgRefs                    nan                       # Average number of references to valid blocks. ((Count/Count))
system.cpu.icache.tags.warmupTick              121000                       # The tick when the warmup percentage was hit. (Tick)
system.cpu.icache.tags.occupancies::cpu.inst   127.552874                       # Average occupied blocks per tick, per requestor ((Count/Tick))
system.cpu.icache.tags.avgOccs::cpu.inst     0.124563                       # Average percentage of cache occupancy ((Ratio/Tick))
system.cpu.icache.tags.avgOccs::total        0.124563                       # Average percentage of cache occupancy ((Ratio/Tick))
system.cpu.icache.tags.occupanciesTaskId::1024          277                       # Occupied blocks per task id (Count)
system.cpu.icache.tags.ageTaskId_1024::0           24                       # Occupied blocks per task id, per block age (Count)
system.cpu.icache.tags.ageTaskId_1024::1          174                       # Occupied blocks per task id, per block age (Count)
system.cpu.icache.tags.ageTaskId_1024::2           79                       # Occupied blocks per task id, per block age (Count)
system.cpu.icache.tags.ratioOccsTaskId::1024     0.270508                       # Ratio of occupied blocks and all blocks, per task id (Ratio)
system.cpu.icache.tags.tagAccesses              41717                       # Number of tag accesses (Count)
system.cpu.icache.tags.dataAccesses             41717                       # Number of data accesses (Count)
system.cpu.icache.tags.power_state.pwrStateResidencyTicks::UNDEFINED    156045000                       # Cumulative time (in ticks) in various power states (Tick)
system.cpu.mmu.alignFaults                          0                       # Number of MMU faults due to alignment restrictions (Count)
system.cpu.mmu.prefetchFaults                       0                       # Number of MMU faults due to prefetch (Count)
system.cpu.mmu.domainFaults                         0                       # Number of MMU faults due to domain restrictions (Count)
system.cpu.mmu.permsFaults                          0                       # Number of MMU faults due to permissions restrictions (Count)
system.cpu.mmu.dtb.readHits                         0                       # Read hits (Count)
system.cpu.mmu.dtb.readMisses                       0                       # Read misses (Count)
system.cpu.mmu.dtb.writeHits                        0                       # Write hits (Count)
system.cpu.mmu.dtb.writeMisses                      0                       # Write misses (Count)
system.cpu.mmu.dtb.inserts                          0                       # Number of times an entry is inserted into the TLB (Count)
system.cpu.mmu.dtb.flushTlb                         0                       # Number of times a TLB invalidation was requested (Count)
system.cpu.mmu.dtb.flushedEntries                   0                       # Number of entries that have been flushed from TLB (Count)
system.cpu.mmu.dtb.readAccesses                     0                       # Read accesses (Count)
system.cpu.mmu.dtb.writeAccesses                    0                       # Write accesses (Count)
system.cpu.mmu.dtb.hits                             0                       # Total TLB (inst and data) hits (Count)
system.cpu.mmu.dtb.misses                           0                       # Total TLB (inst and data) misses (Count)
system.cpu.mmu.dtb.accesses                         0                       # Total TLB (inst and data) accesses (Count)
system.cpu.mmu.dtb_walker.walks                     0                       # Table walker walks requested (Count)
system.cpu.mmu.dtb_walker.requestOrigin_Requested::Data            0                       # Table walker requests started/completed, data/inst (Count)
system.cpu.mmu.dtb_walker.requestOrigin_Requested::Inst            0                       # Table walker requests started/completed, data/inst (Count)
system.cpu.mmu.dtb_walker.requestOrigin_Requested::total            0                       # Table walker requests started/completed, data/inst (Count)
system.cpu.mmu.dtb_walker.requestOrigin_Completed::Data            0                       # Table walker requests started/completed, data/inst (Count)
system.cpu.mmu.dtb_walker.requestOrigin_Completed::Inst            0                       # Table walker requests started/completed, data/inst (Count)
system.cpu.mmu.dtb_walker.requestOrigin_Completed::total            0                       # Table walker requests started/completed, data/inst (Count)
system.cpu.mmu.dtb_walker.requestOrigin::total            0                       # Table walker requests started/completed, data/inst (Count)
system.cpu.mmu.dtb_walker.power_state.pwrStateResidencyTicks::UNDEFINED    156045000                       # Cumulative time (in ticks) in various power states (Tick)
system.cpu.mmu.itb.instHits                         0                       # Inst hits (Count)
system.cpu.mmu.itb.instMisses                       0                       # Inst misses (Count)
system.cpu.mmu.itb.inserts                          0                       # Number of times an entry is inserted into the TLB (Count)
system.cpu.mmu.itb.flushTlb                         0                       # Number of times a TLB invalidation was requested (Count)
system.cpu.mmu.itb.flushedEntries                   0                       # Number of entries that have been flushed from TLB (Count)
system.cpu.mmu.itb.instAccesses                     0                       # Inst accesses (Count)
system.cpu.mmu.itb.hits                             0                       # Total TLB (inst and data) hits (Count)
system.cpu.mmu.itb.misses                           0                       # Total TLB (inst and data) misses (Count)
system.cpu.mmu.itb.accesses                         0                       # Total TLB (inst and data) accesses (Count)
system.cpu.mmu.itb_walker.walks                     0                       # Table walker walks requested (Count)
system.cpu.mmu.itb_walker.requestOrigin_Requested::Data            0                       # Table walker requests started/completed, data/inst (Count)
system.cpu.mmu.itb_walker.requestOrigin_Requested::Inst            0                       # Table walker requests started/completed, data/inst (Count)
system.cpu.mmu.itb_walker.requestOrigin_Requested::total            0                       # Table walker requests started/completed, data/inst (Count)
system.cpu.mmu.itb_walker.requestOrigin_Completed::Data            0                       # Table walker requests started/completed, data/inst (Count)
system.cpu.mmu.itb_walker.requestOrigin_Completed::Inst            0                       # Table walker requests started/completed, data/inst (Count)
system.cpu.mmu.itb_walker.requestOrigin_Completed::total            0                       # Table walker requests started/completed, data/inst (Count)
system.cpu.mmu.itb_walker.requestOrigin::total            0                       # Table walker requests started/completed, data/inst (Count)
system.cpu.mmu.itb_walker.power_state.pwrStateResidencyTicks::UNDEFINED    156045000                       # Cumulative time (in ticks) in various power states (Tick)
system.cpu.mmu.l2_shared.instHits                   0                       # Inst hits (Count)
system.cpu.mmu.l2_shared.instMisses                 0                       # Inst misses (Count)
system.cpu.mmu.l2_shared.inserts                    0                       # Number of times an entry is inserted into the TLB (Count)
system.cpu.mmu.l2_shared.flushTlb                   0                       # Number of times a TLB invalidation was requested (Count)
system.cpu.mmu.l2_shared.flushedEntries             0                       # Number of entries that have been flushed from TLB (Count)
system.cpu.mmu.l2_shared.instAccesses               0                       # Inst accesses (Count)
system.cpu.mmu.l2_shared.hits                       0                       # Total TLB (inst and data) hits (Count)
system.cpu.mmu.l2_shared.misses                     0                       # Total TLB (inst and data) misses (Count)
system.cpu.mmu.l2_shared.accesses                   0                       # Total TLB (inst and data) accesses (Count)
system.cpu.mmu.stage2_dtb.readHits                  0                       # Read hits (Count)
system.cpu.mmu.stage2_dtb.readMisses                0                       # Read misses (Count)
system.cpu.mmu.stage2_dtb.writeHits                 0                       # Write hits (Count)
system.cpu.mmu.stage2_dtb.writeMisses               0                       # Write misses (Count)
system.cpu.mmu.stage2_dtb.inserts                   0                       # Number of times an entry is inserted into the TLB (Count)
system.cpu.mmu.stage2_dtb.flushTlb                  0                       # Number of times a TLB invalidation was requested (Count)
system.cpu.mmu.stage2_dtb.flushedEntries            0                       # Number of entries that have been flushed from TLB (Count)
system.cpu.mmu.stage2_dtb.readAccesses              0                       # Read accesses (Count)
system.cpu.mmu.stage2_dtb.writeAccesses             0                       # Write accesses (Count)
system.cpu.mmu.stage2_dtb.hits                      0                       # Total TLB (inst and data) hits (Count)
system.cpu.mmu.stage2_dtb.misses                    0                       # Total TLB (inst and data) misses (Count)
system.cpu.mmu.stage2_dtb.accesses                  0                       # Total TLB (inst and data) accesses (Count)
system.cpu.mmu.stage2_dtb_walker.walks              0                       # Table walker walks requested (Count)
system.cpu.mmu.stage2_dtb_walker.requestOrigin_Requested::Data            0                       # Table walker requests started/completed, data/inst (Count)
system.cpu.mmu.stage2_dtb_walker.requestOrigin_Requested::Inst            0                       # Table walker requests started/completed, data/inst (Count)
system.cpu.mmu.stage2_dtb_walker.requestOrigin_Requested::total            0                       # Table walker requests started/completed, data/inst (Count)
system.cpu.mmu.stage2_dtb_walker.requestOrigin_Completed::Data            0                       # Table walker requests started/completed, data/inst (Count)
system.cpu.mmu.stage2_dtb_walker.requestOrigin_Completed::Inst            0                       # Table walker requests started/completed, data/inst (Count)
system.cpu.mmu.stage2_dtb_walker.requestOrigin_Completed::total            0                       # Table walker requests started/completed, data/inst (Count)
system.cpu.mmu.stage2_dtb_walker.requestOrigin::total            0                       # Table walker requests started/completed, data/inst (Count)
system.cpu.mmu.stage2_dtb_walker.power_state.pwrStateResidencyTicks::UNDEFINED    156045000                       # Cumulative time (in ticks) in various power states (Tick)
system.cpu.mmu.stage2_itb.instHits                  0                       # Inst hits (Count)
system.cpu.mmu.stage2_itb.instMisses                0                       # Inst misses (Count)
system.cpu.mmu.stage2_itb.inserts                   0                       # Number of times an entry is inserted into the TLB (Count)
system.cpu.mmu.stage2_itb.flushTlb                  0                       # Number of times a TLB invalidation was requested (Count)
system.cpu.mmu.stage2_itb.flushedEntries            0                       # Number of entries that have been flushed from TLB (Count)
system.cpu.mmu.stage2_itb.instAccesses              0                       # Inst accesses (Count)
system.cpu.mmu.stage2_itb.hits                      0                       # Total TLB (inst and data) hits (Count)
system.cpu.mmu.stage2_itb.misses                    0                       # Total TLB (inst and data) misses (Count)
system.cpu.mmu.stage2_itb.accesses                  0                       # Total TLB (inst and data) accesses (Count)
system.cpu.mmu.stage2_itb_walker.walks              0                       # Table walker walks requested (Count)
system.cpu.mmu.stage2_itb_walker.requestOrigin_Requested::Data            0                       # Table walker requests started/completed, data/inst (Count)
system.cpu.mmu.stage2_itb_walker.requestOrigin_Requested::Inst            0                       # Table walker requests started/completed, data/inst (Count)
system.cpu.mmu.stage2_itb_walker.requestOrigin_Requested::total            0                       # Table walker requests started/completed, data/inst (Count)
system.cpu.mmu.stage2_itb_walker.requestOrigin_Completed::Data            0                       # Table walker requests started/completed, data/inst (Count)
system.cpu.mmu.stage2_itb_walker.requestOrigin_Completed::Inst            0                       # Table walker requests started/completed, data/inst (Count)
system.cpu.mmu.stage2_itb_walker.requestOrigin_Completed::total            0                       # Table walker requests started/completed, data/inst (Count)
system.cpu.mmu.stage2_itb_walker.requestOrigin::total            0                       # Table walker requests started/completed, data/inst (Count)
system.cpu.mmu.stage2_itb_walker.power_state.pwrStateResidencyTicks::UNDEFINED    156045000                       # Cumulative time (in ticks) in various power states (Tick)
system.cpu.power_state.pwrStateResidencyTicks::ON    156045000                       # Cumulative time (in ticks) in various power states (Tick)
system.cpu.thread_0.numInsts                        0                       # Number of Instructions committed (Count)
system.cpu.thread_0.numOps                          0                       # Number of Ops committed (Count)
system.cpu.thread_0.numMemRefs                      0                       # Number of Memory References (Count)
system.cpu.workload.numSyscalls                    10                       # Number of system calls (Count)
system.l2bus.transDist::ReadResp                 7824                       # Transaction distribution (Count)
system.l2bus.transDist::WritebackDirty           6862                       # Transaction distribution (Count)
system.l2bus.transDist::CleanEvict               5361                       # Transaction distribution (Count)
system.l2bus.transDist::ReadExReq                  85                       # Transaction distribution (Count)
system.l2bus.transDist::ReadExResp                 85                       # Transaction distribution (Count)
system.l2bus.transDist::ReadSharedReq            7831                       # Transaction distribution (Count)
system.l2bus.transDist::InvalidateReq            6775                       # Transaction distribution (Count)
system.l2bus.pktCount_system.l2cache.mem_side_port::system.mem_ctrl1.port          880                       # Packet count per connected requestor and responder (Count)
system.l2bus.pktCount_system.l2cache.mem_side_port::system.mem_ctrl2.port        33943                       # Packet count per connected requestor and responder (Count)
system.l2bus.pktCount_system.l2cache.mem_side_port::total        34823                       # Packet count per connected requestor and responder (Count)
system.l2bus.pktSize_system.l2cache.mem_side_port::system.mem_ctrl1.port        28160                       # Cumulative packet size per connected requestor and responder (Byte)
system.l2bus.pktSize_system.l2cache.mem_side_port::system.mem_ctrl2.port       917184                       # Cumulative packet size per connected requestor and responder (Byte)
system.l2bus.pktSize_system.l2cache.mem_side_port::total       945344                       # Cumulative packet size per connected requestor and responder (Byte)
system.l2bus.snoops                                 0                       # Total snoops (Count)
system.l2bus.snoopTraffic                           0                       # Total snoop traffic (Byte)
system.l2bus.snoopFanout::samples               14691                       # Request fanout histogram (Count)
system.l2bus.snoopFanout::mean                      0                       # Request fanout histogram (Count)
system.l2bus.snoopFanout::stdev                     0                       # Request fanout histogram (Count)
system.l2bus.snoopFanout::underflows                0      0.00%      0.00% # Request fanout histogram (Count)
system.l2bus.snoopFanout::0                     14691    100.00%    100.00% # Request fanout histogram (Count)
system.l2bus.snoopFanout::1                         0      0.00%    100.00% # Request fanout histogram (Count)
system.l2bus.snoopFanout::overflows                 0      0.00%    100.00% # Request fanout histogram (Count)
system.l2bus.snoopFanout::min_value                 0                       # Request fanout histogram (Count)
system.l2bus.snoopFanout::max_value                 0                       # Request fanout histogram (Count)
system.l2bus.snoopFanout::total                 14691                       # Request fanout histogram (Count)
system.l2bus.power_state.pwrStateResidencyTicks::UNDEFINED    156045000                       # Cumulative time (in ticks) in various power states (Tick)
system.l2bus.reqLayer0.occupancy               549894                       # Layer occupancy (ticks) (Tick)
system.l2bus.reqLayer0.utilization                0.0                       # Layer utilization (Ratio)
system.l2bus.reqLayer1.occupancy             55375908                       # Layer occupancy (ticks) (Tick)
system.l2bus.reqLayer1.utilization                0.4                       # Layer utilization (Ratio)
system.l2bus.respLayer0.occupancy            41727354                       # Layer occupancy (ticks) (Tick)
system.l2bus.respLayer0.utilization               0.3                       # Layer utilization (Ratio)
system.l2bus.snoop_filter.totRequests           27540                       # Total number of requests made to the snoop filter. (Count)
system.l2bus.snoop_filter.hitSingleRequests        12853                       # Number of requests hitting in the snoop filter with a single holder of the requested data. (Count)
system.l2bus.snoop_filter.hitMultiRequests            0                       # Number of requests hitting in the snoop filter with multiple (>1) holders of the requested data. (Count)
system.l2bus.snoop_filter.totSnoops                 0                       # Total number of snoops made to the snoop filter. (Count)
system.l2bus.snoop_filter.hitSingleSnoops            0                       # Number of snoops hitting in the snoop filter with a single holder of the requested data. (Count)
system.l2bus.snoop_filter.hitMultiSnoops            0                       # Number of snoops hitting in the snoop filter with multiple (>1) holders of the requested data. (Count)
system.l2cache.demandHits::cpu.inst                 6                       # number of demand (read+write) hits (Count)
system.l2cache.demandHits::cpu.data                 3                       # number of demand (read+write) hits (Count)
system.l2cache.demandHits::trafficgen           12494                       # number of demand (read+write) hits (Count)
system.l2cache.demandHits::total                12503                       # number of demand (read+write) hits (Count)
system.l2cache.overallHits::cpu.inst                6                       # number of overall hits (Count)
system.l2cache.overallHits::cpu.data                3                       # number of overall hits (Count)
system.l2cache.overallHits::trafficgen          12494                       # number of overall hits (Count)
system.l2cache.overallHits::total               12503                       # number of overall hits (Count)
system.l2cache.demandMisses::cpu.inst             271                       # number of demand (read+write) misses (Count)
system.l2cache.demandMisses::cpu.data             169                       # number of demand (read+write) misses (Count)
system.l2cache.demandMisses::trafficgen         14260                       # number of demand (read+write) misses (Count)
system.l2cache.demandMisses::total              14700                       # number of demand (read+write) misses (Count)
system.l2cache.overallMisses::cpu.inst            271                       # number of overall misses (Count)
system.l2cache.overallMisses::cpu.data            169                       # number of overall misses (Count)
system.l2cache.overallMisses::trafficgen        14260                       # number of overall misses (Count)
system.l2cache.overallMisses::total             14700                       # number of overall misses (Count)
system.l2cache.demandMissLatency::cpu.inst     35143512                       # number of demand (read+write) miss ticks (Tick)
system.l2cache.demandMissLatency::cpu.data     23767965                       # number of demand (read+write) miss ticks (Tick)
system.l2cache.demandMissLatency::trafficgen   4694621494                       # number of demand (read+write) miss ticks (Tick)
system.l2cache.demandMissLatency::total    4753532971                       # number of demand (read+write) miss ticks (Tick)
system.l2cache.overallMissLatency::cpu.inst     35143512                       # number of overall miss ticks (Tick)
system.l2cache.overallMissLatency::cpu.data     23767965                       # number of overall miss ticks (Tick)
system.l2cache.overallMissLatency::trafficgen   4694621494                       # number of overall miss ticks (Tick)
system.l2cache.overallMissLatency::total   4753532971                       # number of overall miss ticks (Tick)
system.l2cache.demandAccesses::cpu.inst           277                       # number of demand (read+write) accesses (Count)
system.l2cache.demandAccesses::cpu.data           172                       # number of demand (read+write) accesses (Count)
system.l2cache.demandAccesses::trafficgen        26754                       # number of demand (read+write) accesses (Count)
system.l2cache.demandAccesses::total            27203                       # number of demand (read+write) accesses (Count)
system.l2cache.overallAccesses::cpu.inst          277                       # number of overall (read+write) accesses (Count)
system.l2cache.overallAccesses::cpu.data          172                       # number of overall (read+write) accesses (Count)
system.l2cache.overallAccesses::trafficgen        26754                       # number of overall (read+write) accesses (Count)
system.l2cache.overallAccesses::total           27203                       # number of overall (read+write) accesses (Count)
system.l2cache.demandMissRate::cpu.inst      0.978339                       # miss rate for demand accesses (Ratio)
system.l2cache.demandMissRate::cpu.data      0.982558                       # miss rate for demand accesses (Ratio)
system.l2cache.demandMissRate::trafficgen     0.533004                       # miss rate for demand accesses (Ratio)
system.l2cache.demandMissRate::total         0.540382                       # miss rate for demand accesses (Ratio)
system.l2cache.overallMissRate::cpu.inst     0.978339                       # miss rate for overall accesses (Ratio)
system.l2cache.overallMissRate::cpu.data     0.982558                       # miss rate for overall accesses (Ratio)
system.l2cache.overallMissRate::trafficgen     0.533004                       # miss rate for overall accesses (Ratio)
system.l2cache.overallMissRate::total        0.540382                       # miss rate for overall accesses (Ratio)
system.l2cache.demandAvgMissLatency::cpu.inst 129680.856089                       # average overall miss latency in ticks ((Tick/Count))
system.l2cache.demandAvgMissLatency::cpu.data 140638.846154                       # average overall miss latency in ticks ((Tick/Count))
system.l2cache.demandAvgMissLatency::trafficgen 329216.093548                       # average overall miss latency in ticks ((Tick/Count))
system.l2cache.demandAvgMissLatency::total 323369.589864                       # average overall miss latency in ticks ((Tick/Count))
system.l2cache.overallAvgMissLatency::cpu.inst 129680.856089                       # average overall miss latency ((Tick/Count))
system.l2cache.overallAvgMissLatency::cpu.data 140638.846154                       # average overall miss latency ((Tick/Count))
system.l2cache.overallAvgMissLatency::trafficgen 329216.093548                       # average overall miss latency ((Tick/Count))
system.l2cache.overallAvgMissLatency::total 323369.589864                       # average overall miss latency ((Tick/Count))
system.l2cache.blockedCycles::no_mshrs          18836                       # number of cycles access was blocked (Cycle)
system.l2cache.blockedCycles::no_targets            0                       # number of cycles access was blocked (Cycle)
system.l2cache.blockedCauses::no_mshrs           2170                       # number of times access was blocked (Count)
system.l2cache.blockedCauses::no_targets            0                       # number of times access was blocked (Count)
system.l2cache.avgBlocked::no_mshrs          8.680184                       # average number of cycles each access was blocked ((Cycle/Count))
system.l2cache.avgBlocked::no_targets             nan                       # average number of cycles each access was blocked ((Cycle/Count))
system.l2cache.writebacks::writebacks            6866                       # number of writebacks (Count)
system.l2cache.writebacks::total                 6866                       # number of writebacks (Count)
system.l2cache.demandMshrMisses::cpu.inst          271                       # number of demand (read+write) MSHR misses (Count)
system.l2cache.demandMshrMisses::cpu.data          169                       # number of demand (read+write) MSHR misses (Count)
system.l2cache.demandMshrMisses::trafficgen        14260                       # number of demand (read+write) MSHR misses (Count)
system.l2cache.demandMshrMisses::total          14700                       # number of demand (read+write) MSHR misses (Count)
system.l2cache.overallMshrMisses::cpu.inst          271                       # number of overall MSHR misses (Count)
system.l2cache.overallMshrMisses::cpu.data          169                       # number of overall MSHR misses (Count)
system.l2cache.overallMshrMisses::trafficgen        14260                       # number of overall MSHR misses (Count)
system.l2cache.overallMshrMisses::total         14700                       # number of overall MSHR misses (Count)
system.l2cache.demandMshrMissLatency::cpu.inst     32426519                       # number of demand (read+write) MSHR miss ticks (Tick)
system.l2cache.demandMshrMissLatency::cpu.data     22075967                       # number of demand (read+write) MSHR miss ticks (Tick)
system.l2cache.demandMshrMissLatency::trafficgen   4551116650                       # number of demand (read+write) MSHR miss ticks (Tick)
system.l2cache.demandMshrMissLatency::total   4605619136                       # number of demand (read+write) MSHR miss ticks (Tick)
system.l2cache.overallMshrMissLatency::cpu.inst     32426519                       # number of overall MSHR miss ticks (Tick)
system.l2cache.overallMshrMissLatency::cpu.data     22075967                       # number of overall MSHR miss ticks (Tick)
system.l2cache.overallMshrMissLatency::trafficgen   4551116650                       # number of overall MSHR miss ticks (Tick)
system.l2cache.overallMshrMissLatency::total   4605619136                       # number of overall MSHR miss ticks (Tick)
system.l2cache.demandMshrMissRate::cpu.inst     0.978339                       # mshr miss ratio for demand accesses (Ratio)
system.l2cache.demandMshrMissRate::cpu.data     0.982558                       # mshr miss ratio for demand accesses (Ratio)
system.l2cache.demandMshrMissRate::trafficgen     0.533004                       # mshr miss ratio for demand accesses (Ratio)
system.l2cache.demandMshrMissRate::total     0.540382                       # mshr miss ratio for demand accesses (Ratio)
system.l2cache.overallMshrMissRate::cpu.inst     0.978339                       # mshr miss ratio for overall accesses (Ratio)
system.l2cache.overallMshrMissRate::cpu.data     0.982558                       # mshr miss ratio for overall accesses (Ratio)
system.l2cache.overallMshrMissRate::trafficgen     0.533004                       # mshr miss ratio for overall accesses (Ratio)
system.l2cache.overallMshrMissRate::total     0.540382                       # mshr miss ratio for overall accesses (Ratio)
system.l2cache.demandAvgMshrMissLatency::cpu.inst 119655.051661                       # average overall mshr miss latency ((Tick/Count))
system.l2cache.demandAvgMshrMissLatency::cpu.data 130627.023669                       # average overall mshr miss latency ((Tick/Count))
system.l2cache.demandAvgMshrMissLatency::trafficgen 319152.640252                       # average overall mshr miss latency ((Tick/Count))
system.l2cache.demandAvgMshrMissLatency::total 313307.424218                       # average overall mshr miss latency ((Tick/Count))
system.l2cache.overallAvgMshrMissLatency::cpu.inst 119655.051661                       # average overall mshr miss latency ((Tick/Count))
system.l2cache.overallAvgMshrMissLatency::cpu.data 130627.023669                       # average overall mshr miss latency ((Tick/Count))
system.l2cache.overallAvgMshrMissLatency::trafficgen 319152.640252                       # average overall mshr miss latency ((Tick/Count))
system.l2cache.overallAvgMshrMissLatency::total 313307.424218                       # average overall mshr miss latency ((Tick/Count))
system.l2cache.replacements                     12636                       # number of replacements (Count)
system.l2cache.ReadExReq.misses::cpu.data           85                       # number of ReadExReq misses (Count)
system.l2cache.ReadExReq.misses::total             85                       # number of ReadExReq misses (Count)
system.l2cache.ReadExReq.missLatency::cpu.data     11730986                       # number of ReadExReq miss ticks (Tick)
system.l2cache.ReadExReq.missLatency::total     11730986                       # number of ReadExReq miss ticks (Tick)
system.l2cache.ReadExReq.accesses::cpu.data           85                       # number of ReadExReq accesses(hits+misses) (Count)
system.l2cache.ReadExReq.accesses::total           85                       # number of ReadExReq accesses(hits+misses) (Count)
system.l2cache.ReadExReq.missRate::cpu.data            1                       # miss rate for ReadExReq accesses (Ratio)
system.l2cache.ReadExReq.missRate::total            1                       # miss rate for ReadExReq accesses (Ratio)
system.l2cache.ReadExReq.avgMissLatency::cpu.data 138011.600000                       # average ReadExReq miss latency ((Tick/Count))
system.l2cache.ReadExReq.avgMissLatency::total 138011.600000                       # average ReadExReq miss latency ((Tick/Count))
system.l2cache.ReadExReq.mshrMisses::cpu.data           85                       # number of ReadExReq MSHR misses (Count)
system.l2cache.ReadExReq.mshrMisses::total           85                       # number of ReadExReq MSHR misses (Count)
system.l2cache.ReadExReq.mshrMissLatency::cpu.data     10879987                       # number of ReadExReq MSHR miss ticks (Tick)
system.l2cache.ReadExReq.mshrMissLatency::total     10879987                       # number of ReadExReq MSHR miss ticks (Tick)
system.l2cache.ReadExReq.mshrMissRate::cpu.data            1                       # mshr miss rate for ReadExReq accesses (Ratio)
system.l2cache.ReadExReq.mshrMissRate::total            1                       # mshr miss rate for ReadExReq accesses (Ratio)
system.l2cache.ReadExReq.avgMshrMissLatency::cpu.data 127999.847059                       # average ReadExReq mshr miss latency ((Tick/Count))
system.l2cache.ReadExReq.avgMshrMissLatency::total 127999.847059                       # average ReadExReq mshr miss latency ((Tick/Count))
system.l2cache.ReadReq.hits::trafficgen          8497                       # number of ReadReq hits (Count)
system.l2cache.ReadReq.hits::total               8497                       # number of ReadReq hits (Count)
system.l2cache.ReadReq.misses::trafficgen         7480                       # number of ReadReq misses (Count)
system.l2cache.ReadReq.misses::total             7480                       # number of ReadReq misses (Count)
system.l2cache.ReadReq.missLatency::trafficgen   4250659130                       # number of ReadReq miss ticks (Tick)
system.l2cache.ReadReq.missLatency::total   4250659130                       # number of ReadReq miss ticks (Tick)
system.l2cache.ReadReq.accesses::trafficgen        15977                       # number of ReadReq accesses(hits+misses) (Count)
[...]
system.mem_ctrl2.dram.numReads::trafficgen         7469                       # Number of read requests responded to by this memory (Count)
system.mem_ctrl2.dram.numReads::total            7469                       # Number of read requests responded to by this memory (Count)
system.mem_ctrl2.dram.numWrites::writebacks         6862                       # Number of write requests responded to by this memory (Count)
system.mem_ctrl2.dram.numWrites::total           6862                       # Number of write requests responded to by this memory (Count)
system.mem_ctrl2.dram.bwRead::trafficgen   3063321478                       # Total read bandwidth from this memory ((Byte/Second))
system.mem_ctrl2.dram.bwRead::total        3063321478                       # Total read bandwidth from this memory ((Byte/Second))
system.mem_ctrl2.dram.bwWrite::writebacks   2814367650                       # Write bandwidth from this memory ((Byte/Second))
system.mem_ctrl2.dram.bwWrite::total       2814367650                       # Write bandwidth from this memory ((Byte/Second))
system.mem_ctrl2.dram.bwTotal::writebacks   2814367650                       # Total bandwidth to/from this memory ((Byte/Second))
system.mem_ctrl2.dram.bwTotal::trafficgen   3063321478                       # Total bandwidth to/from this memory ((Byte/Second))
system.mem_ctrl2.dram.bwTotal::total       5877689128                       # Total bandwidth to/from this memory ((Byte/Second))
system.mem_ctrl2.dram.readBursts                 7244                       # Number of DRAM read bursts (Count)
system.mem_ctrl2.dram.writeBursts                6798                       # Number of DRAM write bursts (Count)
system.mem_ctrl2.dram.perBankRdBursts::0          562                       # Per bank write bursts (Count)
system.mem_ctrl2.dram.perBankRdBursts::1          495                       # Per bank write bursts (Count)
system.mem_ctrl2.dram.perBankRdBursts::2          475                       # Per bank write bursts (Count)
system.mem_ctrl2.dram.perBankRdBursts::3          504                       # Per bank write bursts (Count)
system.mem_ctrl2.dram.perBankRdBursts::4          473                       # Per bank write bursts (Count)
system.mem_ctrl2.dram.perBankRdBursts::5          522                       # Per bank write bursts (Count)
system.mem_ctrl2.dram.perBankRdBursts::6          526                       # Per bank write bursts (Count)
system.mem_ctrl2.dram.perBankRdBursts::7          376                       # Per bank write bursts (Count)
system.mem_ctrl2.dram.perBankRdBursts::8          485                       # Per bank write bursts (Count)
system.mem_ctrl2.dram.perBankRdBursts::9          415                       # Per bank write bursts (Count)
system.mem_ctrl2.dram.perBankRdBursts::10          386                       # Per bank write bursts (Count)
system.mem_ctrl2.dram.perBankRdBursts::11          406                       # Per bank write bursts (Count)
system.mem_ctrl2.dram.perBankRdBursts::12          391                       # Per bank write bursts (Count)
system.mem_ctrl2.dram.perBankRdBursts::13          448                       # Per bank write bursts (Count)
system.mem_ctrl2.dram.perBankRdBursts::14          416                       # Per bank write bursts (Count)
system.mem_ctrl2.dram.perBankRdBursts::15          364                       # Per bank write bursts (Count)
system.mem_ctrl2.dram.perBankWrBursts::0          547                       # Per bank write bursts (Count)
system.mem_ctrl2.dram.perBankWrBursts::1          541                       # Per bank write bursts (Count)
system.mem_ctrl2.dram.perBankWrBursts::2          453                       # Per bank write bursts (Count)
system.mem_ctrl2.dram.perBankWrBursts::3          480                       # Per bank write bursts (Count)
system.mem_ctrl2.dram.perBankWrBursts::4          427                       # Per bank write bursts (Count)
system.mem_ctrl2.dram.perBankWrBursts::5          428                       # Per bank write bursts (Count)
system.mem_ctrl2.dram.perBankWrBursts::6          409                       # Per bank write bursts (Count)
system.mem_ctrl2.dram.perBankWrBursts::7          350                       # Per bank write bursts (Count)
system.mem_ctrl2.dram.perBankWrBursts::8          453                       # Per bank write bursts (Count)
system.mem_ctrl2.dram.perBankWrBursts::9          409                       # Per bank write bursts (Count)
system.mem_ctrl2.dram.perBankWrBursts::10          397                       # Per bank write bursts (Count)
system.mem_ctrl2.dram.perBankWrBursts::11          394                       # Per bank write bursts (Count)
system.mem_ctrl2.dram.perBankWrBursts::12          396                       # Per bank write bursts (Count)
system.mem_ctrl2.dram.perBankWrBursts::13          397                       # Per bank write bursts (Count)
system.mem_ctrl2.dram.perBankWrBursts::14          369                       # Per bank write bursts (Count)
system.mem_ctrl2.dram.perBankWrBursts::15          348                       # Per bank write bursts (Count)
system.mem_ctrl2.dram.totQLat              3390859603                       # Total ticks spent queuing (Tick)
system.mem_ctrl2.dram.totBusLat              63240120                       # Total ticks spent in databus transfers (Tick)
system.mem_ctrl2.dram.totMemAccLat         3622740043                       # Total ticks spent from burst creation until serviced by the DRAM (Tick)
system.mem_ctrl2.dram.avgQLat               468092.16                       # Average queueing delay per DRAM burst ((Tick/Count))
system.mem_ctrl2.dram.avgBusLat               8730.00                       # Average bus latency per DRAM burst ((Tick/Count))
system.mem_ctrl2.dram.avgMemAccLat          500102.16                       # Average memory access latency per DRAM burst ((Tick/Count))
system.mem_ctrl2.dram.readRowHits                3328                       # Number of row buffer hits during reads (Count)
system.mem_ctrl2.dram.writeRowHits               2193                       # Number of row buffer hits during writes (Count)
system.mem_ctrl2.dram.readRowHitRate            45.94                       # Row buffer hit rate for reads (Ratio)
system.mem_ctrl2.dram.writeRowHitRate           32.26                       # Row buffer hit rate for writes (Ratio)
system.mem_ctrl2.dram.bytesPerActivate::samples         8519                       # Bytes accessed per row activation (Byte)
system.mem_ctrl2.dram.bytesPerActivate::mean   105.447118                       # Bytes accessed per row activation (Byte)
system.mem_ctrl2.dram.bytesPerActivate::gmean    79.564688                       # Bytes accessed per row activation (Byte)
system.mem_ctrl2.dram.bytesPerActivate::stdev   137.302062                       # Bytes accessed per row activation (Byte)
system.mem_ctrl2.dram.bytesPerActivate::0-127         7222     84.78%     84.78% # Bytes accessed per row activation (Byte)
system.mem_ctrl2.dram.bytesPerActivate::128-255          599      7.03%     91.81% # Bytes accessed per row activation (Byte)
system.mem_ctrl2.dram.bytesPerActivate::256-383          255      2.99%     94.80% # Bytes accessed per row activation (Byte)
system.mem_ctrl2.dram.bytesPerActivate::384-511          161      1.89%     96.69% # Bytes accessed per row activation (Byte)
system.mem_ctrl2.dram.bytesPerActivate::512-639           93      1.09%     97.78% # Bytes accessed per row activation (Byte)
system.mem_ctrl2.dram.bytesPerActivate::640-767           71      0.83%     98.61% # Bytes accessed per row activation (Byte)
system.mem_ctrl2.dram.bytesPerActivate::768-895           33      0.39%     99.00% # Bytes accessed per row activation (Byte)
system.mem_ctrl2.dram.bytesPerActivate::896-1023           26      0.31%     99.31% # Bytes accessed per row activation (Byte)
system.mem_ctrl2.dram.bytesPerActivate::1024-1151           59      0.69%    100.00% # Bytes accessed per row activation (Byte)
system.mem_ctrl2.dram.bytesPerActivate::total         8519                       # Bytes accessed per row activation (Byte)
system.mem_ctrl2.dram.dramBytesRead            463616                       # Total bytes read (Byte)
system.mem_ctrl2.dram.dramBytesWritten         435072                       # Total bytes written (Byte)
system.mem_ctrl2.dram.avgRdBW             2971.040405                       # Average DRAM read bandwidth in MiBytes/s ((Byte/Second))
system.mem_ctrl2.dram.avgWrBW             2788.118812                       # Average DRAM write bandwidth in MiBytes/s ((Byte/Second))
system.mem_ctrl2.dram.peakBW                 10996.00                       # Theoretical peak bandwidth in MiByte/s ((Byte/Second))
system.mem_ctrl2.dram.busUtil                   52.38                       # Data bus utilization in percentage (Ratio)
system.mem_ctrl2.dram.busUtilRead               27.02                       # Data bus utilization in percentage for reads (Ratio)
system.mem_ctrl2.dram.busUtilWrite              25.36                       # Data bus utilization in percentage for writes (Ratio)
system.mem_ctrl2.dram.pageHitRate               39.32                       # Row buffer hit rate, read and write combined (Ratio)
system.mem_ctrl2.dram.power_state.pwrStateResidencyTicks::UNDEFINED    156045000                       # Cumulative time (in ticks) in various power states (Tick)
system.mem_ctrl2.dram.rank0.actEnergy               0                       # Energy for activate commands per rank (pJ) (Joule)
system.mem_ctrl2.dram.rank0.preEnergy               0                       # Energy for precharge commands per rank (pJ) (Joule)
system.mem_ctrl2.dram.rank0.readEnergy              0                       # Energy for read commands per rank (pJ) (Joule)
system.mem_ctrl2.dram.rank0.writeEnergy             0                       # Energy for write commands per rank (pJ) (Joule)
system.mem_ctrl2.dram.rank0.refreshEnergy            0                       # Energy for refresh commands per rank (pJ) (Joule)
system.mem_ctrl2.dram.rank0.actBackEnergy            0                       # Energy for active background per rank (pJ) (Joule)
system.mem_ctrl2.dram.rank0.preBackEnergy            0                       # Energy for precharge background per rank (pJ) (Joule)
system.mem_ctrl2.dram.rank0.actPowerDownEnergy            0                       # Energy for active power-down per rank (pJ) (Joule)
system.mem_ctrl2.dram.rank0.prePowerDownEnergy            0                       # Energy for precharge power-down per rank (pJ) (Joule)
system.mem_ctrl2.dram.rank0.selfRefreshEnergy            0                       # Energy for self refresh per rank (pJ) (Joule)
system.mem_ctrl2.dram.rank0.totalEnergy             0                       # Total energy per rank (pJ) (Joule)
system.mem_ctrl2.dram.rank0.averagePower            0                       # Core power per rank (mW) (Watt)
system.mem_ctrl2.dram.rank0.totalIdleTime            0                       # Total Idle time Per DRAM Rank (Tick)
system.mem_ctrl2.dram.rank0.pwrStateTime::IDLE     33402474                       # Time in different power states (Tick)
system.mem_ctrl2.dram.rank0.pwrStateTime::REF      8400000                       # Time in different power states (Tick)
system.mem_ctrl2.dram.rank0.pwrStateTime::SREF            0                       # Time in different power states (Tick)
system.mem_ctrl2.dram.rank0.pwrStateTime::PRE_PDN            0                       # Time in different power states (Tick)
system.mem_ctrl2.dram.rank0.pwrStateTime::ACT    114242526                       # Time in different power states (Tick)
system.mem_ctrl2.dram.rank0.pwrStateTime::ACT_PDN            0                       # Time in different power states (Tick)
system.mem_ctrl2.power_state.pwrStateResidencyTicks::UNDEFINED    156045000                       # Cumulative time (in ticks) in various power states (Tick)
system.membus.transDist::ReadReq                15977                       # Transaction distribution (Count)
system.membus.transDist::ReadResp               16330                       # Transaction distribution (Count)
system.membus.transDist::WriteReq               10777                       # Transaction distribution (Count)
system.membus.transDist::WriteResp              10772                       # Transaction distribution (Count)
system.membus.transDist::WritebackDirty          6866                       # Transaction distribution (Count)
system.membus.transDist::CleanEvict              5770                       # Transaction distribution (Count)
system.membus.transDist::ReadExReq                 85                       # Transaction distribution (Count)
system.membus.transDist::ReadExResp                85                       # Transaction distribution (Count)
system.membus.transDist::ReadSharedReq            364                       # Transaction distribution (Count)
system.membus.pktCount_system.cpu.icache.mem_side_port::system.l2cache.cpu_side_port          554                       # Packet count per connected requestor and responder (Count)
system.membus.pktCount_system.cpu.dcache.mem_side_port::system.l2cache.cpu_side_port          344                       # Packet count per connected requestor and responder (Count)
system.membus.pktCount_system.trafficgen.port::system.l2cache.cpu_side_port        53492                       # Packet count per connected requestor and responder (Count)
system.membus.pktCount::total                   54390                       # Packet count per connected requestor and responder (Count)
system.membus.pktSize_system.cpu.icache.mem_side_port::system.l2cache.cpu_side_port        17728                       # Cumulative packet size per connected requestor and responder (Byte)
system.membus.pktSize_system.cpu.dcache.mem_side_port::system.l2cache.cpu_side_port        11008                       # Cumulative packet size per connected requestor and responder (Byte)
system.membus.pktSize_system.trafficgen.port::system.l2cache.cpu_side_port      1711552                       # Cumulative packet size per connected requestor and responder (Byte)
system.membus.pktSize::total                  1740288                       # Cumulative packet size per connected requestor and responder (Byte)
system.membus.snoops                            12636                       # Total snoops (Count)
system.membus.snoopTraffic                     439424                       # Total snoop traffic (Byte)
system.membus.snoopFanout::samples              41750                       # Request fanout histogram (Count)
system.membus.snoopFanout::mean              0.010443                       # Request fanout histogram (Count)
system.membus.snoopFanout::stdev             0.104676                       # Request fanout histogram (Count)
system.membus.snoopFanout::underflows               0      0.00%      0.00% # Request fanout histogram (Count)
system.membus.snoopFanout::0                    41327     98.99%     98.99% # Request fanout histogram (Count)
system.membus.snoopFanout::1                      410      0.98%     99.97% # Request fanout histogram (Count)
system.membus.snoopFanout::2                       13      0.03%    100.00% # Request fanout histogram (Count)
system.membus.snoopFanout::overflows                0      0.00%    100.00% # Request fanout histogram (Count)
system.membus.snoopFanout::min_value                0                       # Request fanout histogram (Count)
system.membus.snoopFanout::max_value                2                       # Request fanout histogram (Count)
system.membus.snoopFanout::total                41750                       # Request fanout histogram (Count)
system.membus.power_state.pwrStateResidencyTicks::UNDEFINED    156045000                       # Cumulative time (in ticks) in various power states (Tick)
system.membus.reqLayer0.occupancy            81347545                       # Layer occupancy (ticks) (Tick)
system.membus.reqLayer0.utilization               0.5                       # Layer utilization (Ratio)
system.membus.respLayer0.occupancy            1513871                       # Layer occupancy (ticks) (Tick)
system.membus.respLayer0.utilization              0.0                       # Layer utilization (Ratio)
system.membus.respLayer1.occupancy             935924                       # Layer occupancy (ticks) (Tick)
system.membus.respLayer1.utilization              0.0                       # Layer utilization (Ratio)
system.membus.respLayer2.occupancy           90602000                       # Layer occupancy (ticks) (Tick)
system.membus.respLayer2.utilization              0.6                       # Layer utilization (Ratio)
system.membus.snoop_filter.totRequests            501                       # Total number of requests made to the snoop filter. (Count)
system.membus.snoop_filter.hitSingleRequests           14                       # Number of requests hitting in the snoop filter with a single holder of the requested data. (Count)
system.membus.snoop_filter.hitMultiRequests            0                       # Number of requests hitting in the snoop filter with multiple (>1) holders of the requested data. (Count)
system.membus.snoop_filter.totSnoops              409                       # Total number of snoops made to the snoop filter. (Count)
system.membus.snoop_filter.hitSingleSnoops          396                       # Number of snoops hitting in the snoop filter with a single holder of the requested data. (Count)
system.membus.snoop_filter.hitMultiSnoops           13                       # Number of snoops hitting in the snoop filter with multiple (>1) holders of the requested data. (Count)
system.trafficgen.numSuppressed                     0                       # Number of suppressed packets to non-memory space (Count)
system.trafficgen.numPackets                    26754                       # Number of packets generated (Count)
system.trafficgen.numRetries                    12638                       # Number of retries (Count)
system.trafficgen.retryTicks                 62140184                       # Time spent waiting due to back-pressure (Tick)
system.trafficgen.bytesRead                   1021824                       # Number of bytes read (Byte)
system.trafficgen.bytesWritten                 689408                       # Number of bytes written (Byte)
system.trafficgen.totalReadLatency         5366956231                       # Total latency of read requests (Tick)
system.trafficgen.totalWriteLatency         832832439                       # Total latency of write requests (Tick)
system.trafficgen.totalReads                    15966                       # Total num of reads (Count)
system.trafficgen.totalWrites                   10772                       # Total num of writes (Count)
system.trafficgen.avgReadLatency         336149.081235                       # Avg latency of read requests ((Tick/Count))
system.trafficgen.avgWriteLatency        77314.559877                       # Avg latency of write requests ((Tick/Count))
system.trafficgen.readBW                 6548264923.579737                       # Read bandwidth ((Byte/Second))
system.trafficgen.writeBW                4418007626.005319                       # Write bandwidth ((Byte/Second))
system.trafficgen.power_state.pwrStateResidencyTicks::UNDEFINED    156045000                       # Cumulative time (in ticks) in various power states (Tick)
system.workload.inst.arm                            0                       # number of arm instructions executed (Count)
system.workload.inst.quiesce                        0                       # number of quiesce instructions executed (Count)

---------- End Simulation Statistics   ----------
